/*---------------------------------------------------------------------------*\
| =========                 |                                                 |
| \\      /  F ield         | OpenFOAM: The Open Source CFD Toolbox           |
|  \\    /   O peration     | Version:  v1812                                 |
|   \\  /    A nd           | Web:      www.OpenFOAM.com                      |
|    \\/     M anipulation  |                                                 |
\*---------------------------------------------------------------------------*/
Build  : v1812 OPENFOAM=1812
Arch   : "LSB;label=32;scalar=64"
Exec   : icoFoam
Date   : Jul 25 2022
Time   : 16:50:21
Host   : DESKTOP-2P6APRA
PID    : 21906
I/O    : uncollated
Case   : /home/pedro/OpenFoam/Day5/laminar_pipe/case0
nProcs : 1
trapFpe: Floating point exception trapping enabled (FOAM_SIGFPE).
fileModificationChecking : Monitoring run-time modified files using timeStampMaster (fileModificationSkew 10)
allowSystemOperations : Allowing user-supplied system call operations

// * * * * * * * * * * * * * * * * * * * * * * * * * * * * * * * * * * * * * //
Create time

Create mesh for time = 0


PISO: Operating solver in PISO mode

Reading transportProperties

Reading field p

Reading field U

Reading/calculating face flux field phi


Starting time loop

surfaceFieldValue inMassFlow:
    operation     = sum
    total faces   = 10
    total area    = 0.1


surfaceFieldValue outMassFlow:
    operation     = sum
    total faces   = 10
    total area    = 0.1


surfaceFieldValue inPre:
    operation     = weightedAverage
    total faces   = 10
    total area    = 0.1
    weight field  = p


surfaceFieldValue outMax:
    operation     = max
    total faces   = 10
    total area    = 0.1


Time = 0.05

Courant Number mean: 0.0025 max: 0.25
DILUPBiCG:  Solving for Ux, Initial residual = 1, Final residual = 7.1360744e-09, No Iterations 3
DILUPBiCG:  Solving for Uy, Initial residual = 0, Final residual = 0, No Iterations 0
GAMG:  Solving for p, Initial residual = 1, Final residual = 6.8574955e-07, No Iterations 9
time step continuity errors : sum local = 3.4287481e-09, global = -1.820109e-10, cumulative = -1.820109e-10
ExecutionTime = 0.26 s  ClockTime = 0 s

fieldMinMax minmaxdomain write:
    min(U) = (0.83839301 0.010970592 0) in cell 0 at location (0.05 -0.45 0.05)
    max(U) = (0.83839301 0.010970592 0) in cell 0 at location (0.05 -0.45 0.05)
    min(p) = 0 in cell 99 at location (10 -0.45 0.05)
    max(p) = 240.05125 in cell 900 at location (0.05 0.45 0.05)

surfaceFieldValue inMassFlow write:
    sum(inlet) of phi = -0.1

surfaceFieldValue outMassFlow write:
    sum(outlet) of phi = 0.099999996

surfaceFieldValue inPre write:
    weightedAverage(inlet) of phi = -0.01
    weightedAverage(inlet) of U = (1 0 0)
    weightedAverage(inlet) of p = 239.98051

surfaceFieldValue outMax write:
    max(outlet) of U = (1.0190827 0.00017560941 0)
    max(outlet) of p = 0

Time = 0.1

Courant Number mean: 0.50008223 max: 0.51119003
DILUPBiCG:  Solving for Ux, Initial residual = 0.98515964, Final residual = 3.566088e-09, No Iterations 4
DILUPBiCG:  Solving for Uy, Initial residual = 0.34884328, Final residual = 7.80989e-09, No Iterations 4
GAMG:  Solving for p, Initial residual = 0.0070271771, Final residual = 4.5998944e-07, No Iterations 6
time step continuity errors : sum local = 3.9825675e-07, global = 3.2169948e-08, cumulative = 3.1987937e-08
ExecutionTime = 0.27 s  ClockTime = 0 s

fieldMinMax minmaxdomain write:
    min(U) = (0.82023602 0.026501241 0) in cell 0 at location (0.05 -0.45 0.05)
    max(U) = (0.82023602 0.026501241 0) in cell 0 at location (0.05 -0.45 0.05)
    min(p) = -40.296538 in cell 402 at location (0.25 -0.05 0.05)
    max(p) = 0 in cell 99 at location (10 -0.45 0.05)

surfaceFieldValue inMassFlow write:
    sum(inlet) of phi = -0.1

surfaceFieldValue outMassFlow write:
    sum(outlet) of phi = 0.10000064

surfaceFieldValue inPre write:
    weightedAverage(inlet) of phi = -0.01
    weightedAverage(inlet) of U = (1 -0 -0)
    weightedAverage(inlet) of p = -39.868004

surfaceFieldValue outMax write:
    max(outlet) of U = (1.0909497 0.0016297756 0)
    max(outlet) of p = 0

Time = 0.15

Courant Number mean: 0.50039038 max: 0.52952072
DILUPBiCG:  Solving for Ux, Initial residual = 0.76971819, Final residual = 3.5648174e-09, No Iterations 4
DILUPBiCG:  Solving for Uy, Initial residual = 0.30276322, Final residual = 7.1602987e-09, No Iterations 4
GAMG:  Solving for p, Initial residual = 0.019220792, Final residual = 9.7911449e-07, No Iterations 6
time step continuity errors : sum local = 1.4835983e-07, global = -1.171583e-08, cumulative = 2.0272107e-08
ExecutionTime = 0.27 s  ClockTime = 0 s

fieldMinMax minmaxdomain write:
    min(U) = (0.85946602 0.031611121 0) in cell 0 at location (0.05 -0.45 0.05)
    max(U) = (0.85946602 0.031611121 0) in cell 0 at location (0.05 -0.45 0.05)
    min(p) = 0 in cell 99 at location (10 -0.45 0.05)
    max(p) = 11.321164 in cell 0 at location (0.05 -0.45 0.05)

surfaceFieldValue inMassFlow write:
    sum(inlet) of phi = -0.1

surfaceFieldValue outMassFlow write:
    sum(outlet) of phi = 0.099999766

surfaceFieldValue inPre write:
    weightedAverage(inlet) of phi = -0.01
    weightedAverage(inlet) of U = (1 0 0)
    weightedAverage(inlet) of p = 11.188072

surfaceFieldValue outMax write:
    max(outlet) of U = (1.0706948 0.00029797306 0)
    max(outlet) of p = 0

Time = 0.2

Courant Number mean: 0.50050296 max: 0.54090114
DILUPBiCG:  Solving for Ux, Initial residual = 0.21403506, Final residual = 1.7059435e-09, No Iterations 4
DILUPBiCG:  Solving for Uy, Initial residual = 0.1175629, Final residual = 6.460233e-09, No Iterations 4
GAMG:  Solving for p, Initial residual = 0.021562325, Final residual = 7.6473719e-07, No Iterations 6
time step continuity errors : sum local = 3.2431459e-08, global = 3.3104771e-09, cumulative = 2.3582584e-08
ExecutionTime = 0.27 s  ClockTime = 0 s

fieldMinMax minmaxdomain write:
    min(U) = (0.88833127 0.034450588 0) in cell 0 at location (0.05 -0.45 0.05)
    max(U) = (0.88833127 0.034450588 0) in cell 0 at location (0.05 -0.45 0.05)
    min(p) = 0 in cell 99 at location (10 -0.45 0.05)
    max(p) = 1.8690004 in cell 900 at location (0.05 0.45 0.05)

surfaceFieldValue inMassFlow write:
    sum(inlet) of phi = -0.1

surfaceFieldValue outMassFlow write:
    sum(outlet) of phi = 0.10000007

surfaceFieldValue inPre write:
    weightedAverage(inlet) of phi = -0.01
    weightedAverage(inlet) of U = (1 0 0)
    weightedAverage(inlet) of p = 1.7394603

surfaceFieldValue outMax write:
    max(outlet) of U = (1.0851606 0.00015332396 0)
    max(outlet) of p = 0

Time = 0.25

Courant Number mean: 0.50064433 max: 0.54873089
DILUPBiCG:  Solving for Ux, Initial residual = 0.073558253, Final residual = 9.6777905e-10, No Iterations 4
DILUPBiCG:  Solving for Uy, Initial residual = 0.10621238, Final residual = 3.0184948e-09, No Iterations 4
GAMG:  Solving for p, Initial residual = 0.032596312, Final residual = 3.3487263e-07, No Iterations 7
time step continuity errors : sum local = 2.0423465e-09, global = 1.1266661e-10, cumulative = 2.3695251e-08
ExecutionTime = 0.29 s  ClockTime = 0 s

fieldMinMax minmaxdomain write:
    min(U) = (0.90453174 0.035962831 0) in cell 0 at location (0.05 -0.45 0.05)
    max(U) = (0.90453174 0.035962831 0) in cell 0 at location (0.05 -0.45 0.05)
    min(p) = 0 in cell 99 at location (10 -0.45 0.05)
    max(p) = 3.3464838 in cell 0 at location (0.05 -0.45 0.05)

surfaceFieldValue inMassFlow write:
    sum(inlet) of phi = -0.1

surfaceFieldValue outMassFlow write:
    sum(outlet) of phi = 0.1

surfaceFieldValue inPre write:
    weightedAverage(inlet) of phi = -0.01
    weightedAverage(inlet) of U = (1 0 0)
    weightedAverage(inlet) of p = 3.2126774

surfaceFieldValue outMax write:
    max(outlet) of U = (1.0938054 0.00039441476 0)
    max(outlet) of p = 0

Time = 0.3

Courant Number mean: 0.50077086 max: 0.55457178
DILUPBiCG:  Solving for Ux, Initial residual = 0.066352386, Final residual = 7.8614592e-10, No Iterations 4
DILUPBiCG:  Solving for Uy, Initial residual = 0.077133324, Final residual = 3.4653573e-09, No Iterations 4
GAMG:  Solving for p, Initial residual = 0.0068294879, Final residual = 3.4499997e-07, No Iterations 6
time step continuity errors : sum local = 4.0990192e-09, global = 4.7708747e-10, cumulative = 2.4172338e-08
ExecutionTime = 0.29 s  ClockTime = 0 s

fieldMinMax minmaxdomain write:
    min(U) = (0.91345469 0.036654453 0) in cell 0 at location (0.05 -0.45 0.05)
    max(U) = (0.91345469 0.036654453 0) in cell 0 at location (0.05 -0.45 0.05)
    min(p) = 0 in cell 99 at location (10 -0.45 0.05)
    max(p) = 2.8953499 in cell 900 at location (0.05 0.45 0.05)

surfaceFieldValue inMassFlow write:
    sum(inlet) of phi = -0.1

surfaceFieldValue outMassFlow write:
    sum(outlet) of phi = 0.10000001

surfaceFieldValue inPre write:
    weightedAverage(inlet) of phi = -0.01
    weightedAverage(inlet) of U = (1 0 0)
    weightedAverage(inlet) of p = 2.7597187

surfaceFieldValue outMax write:
    max(outlet) of U = (1.1038279 0.00062396577 0)
    max(outlet) of p = 0

Time = 0.35

Courant Number mean: 0.50088836 max: 0.55884483
DILUPBiCG:  Solving for Ux, Initial residual = 0.051825001, Final residual = 6.3368402e-10, No Iterations 4
DILUPBiCG:  Solving for Uy, Initial residual = 0.062553704, Final residual = 1.9473747e-09, No Iterations 4
GAMG:  Solving for p, Initial residual = 0.005739889, Final residual = 3.6408251e-07, No Iterations 5
time step continuity errors : sum local = 3.6584703e-09, global = 5.2344064e-10, cumulative = 2.4695779e-08
ExecutionTime = 0.29 s  ClockTime = 0 s

fieldMinMax minmaxdomain write:
    min(U) = (0.91820192 0.036879318 0) in cell 0 at location (0.05 -0.45 0.05)
    max(U) = (0.91820192 0.036879318 0) in cell 0 at location (0.05 -0.45 0.05)
    min(p) = 0 in cell 99 at location (10 -0.45 0.05)
    max(p) = 2.8197549 in cell 0 at location (0.05 -0.45 0.05)

surfaceFieldValue inMassFlow write:
    sum(inlet) of phi = -0.1

surfaceFieldValue outMassFlow write:
    sum(outlet) of phi = 0.10000001

surfaceFieldValue inPre write:
    weightedAverage(inlet) of phi = -0.01
    weightedAverage(inlet) of U = (1 0 0)
    weightedAverage(inlet) of p = 2.6826817

surfaceFieldValue outMax write:
    max(outlet) of U = (1.1140357 0.00081955997 0)
    max(outlet) of p = 0

Time = 0.4

Courant Number mean: 0.50099653 max: 0.56203098
DILUPBiCG:  Solving for Ux, Initial residual = 0.044054934, Final residual = 5.4504936e-10, No Iterations 4
DILUPBiCG:  Solving for Uy, Initial residual = 0.052209635, Final residual = 1.5911478e-09, No Iterations 4
GAMG:  Solving for p, Initial residual = 0.004243488, Final residual = 3.2840327e-07, No Iterations 5
time step continuity errors : sum local = 3.2068313e-09, global = 2.9109917e-10, cumulative = 2.4986878e-08
ExecutionTime = 0.29 s  ClockTime = 0 s

fieldMinMax minmaxdomain write:
    min(U) = (0.92047754 0.03686281 0) in cell 0 at location (0.05 -0.45 0.05)
    max(U) = (0.92047754 0.03686281 0) in cell 0 at location (0.05 -0.45 0.05)
    min(p) = 0 in cell 99 at location (10 -0.45 0.05)
    max(p) = 2.6974526 in cell 900 at location (0.05 0.45 0.05)

surfaceFieldValue inMassFlow write:
    sum(inlet) of phi = -0.1

surfaceFieldValue outMassFlow write:
    sum(outlet) of phi = 0.10000001

surfaceFieldValue inPre write:
    weightedAverage(inlet) of phi = -0.01
    weightedAverage(inlet) of U = (1 0 0)
    weightedAverage(inlet) of p = 2.5592846

surfaceFieldValue outMax write:
    max(outlet) of U = (1.1244462 0.00094102776 0)
    max(outlet) of p = 0

Time = 0.45

Courant Number mean: 0.50109661 max: 0.56776426
DILUPBiCG:  Solving for Ux, Initial residual = 0.037972465, Final residual = 4.6992137e-10, No Iterations 4
DILUPBiCG:  Solving for Uy, Initial residual = 0.044360204, Final residual = 1.3419763e-09, No Iterations 4
GAMG:  Solving for p, Initial residual = 0.0034574075, Final residual = 2.8392002e-07, No Iterations 5
time step continuity errors : sum local = 2.6361148e-09, global = 2.7012082e-10, cumulative = 2.5256999e-08
ExecutionTime = 0.3 s  ClockTime = 0 s

fieldMinMax minmaxdomain write:
    min(U) = (0.92133997 0.036733047 0) in cell 0 at location (0.05 -0.45 0.05)
    max(U) = (0.92133997 0.036733047 0) in cell 0 at location (0.05 -0.45 0.05)
    min(p) = 0 in cell 99 at location (10 -0.45 0.05)
    max(p) = 2.6010835 in cell 900 at location (0.05 0.45 0.05)

surfaceFieldValue inMassFlow write:
    sum(inlet) of phi = -0.1

surfaceFieldValue outMassFlow write:
    sum(outlet) of phi = 0.10000001

surfaceFieldValue inPre write:
    weightedAverage(inlet) of phi = -0.01
    weightedAverage(inlet) of U = (1 0 0)
    weightedAverage(inlet) of p = 2.4620581

surfaceFieldValue outMax write:
    max(outlet) of U = (1.1348893 0.000985958 0)
    max(outlet) of p = 0

Time = 0.5

Courant Number mean: 0.50118928 max: 0.57325291
DILUPBiCG:  Solving for Ux, Initial residual = 0.03322743, Final residual = 4.3618589e-10, No Iterations 4
DILUPBiCG:  Solving for Uy, Initial residual = 0.038320736, Final residual = 1.1718146e-09, No Iterations 4
GAMG:  Solving for p, Initial residual = 0.0027622642, Final residual = 3.1319681e-07, No Iterations 5
time step continuity errors : sum local = 2.7885011e-09, global = 2.387368e-10, cumulative = 2.5495736e-08
ExecutionTime = 0.3 s  ClockTime = 0 s

fieldMinMax minmaxdomain write:
    min(U) = (0.92144387 0.036561597 0) in cell 0 at location (0.05 -0.45 0.05)
    max(U) = (0.92144387 0.036561597 0) in cell 0 at location (0.05 -0.45 0.05)
    min(p) = 0 in cell 99 at location (10 -0.45 0.05)
    max(p) = 2.5148186 in cell 900 at location (0.05 0.45 0.05)

surfaceFieldValue inMassFlow write:
    sum(inlet) of phi = -0.1

surfaceFieldValue outMassFlow write:
    sum(outlet) of phi = 0.1

surfaceFieldValue inPre write:
    weightedAverage(inlet) of phi = -0.01
    weightedAverage(inlet) of U = (1 0 0)
    weightedAverage(inlet) of p = 2.3751575

surfaceFieldValue outMax write:
    max(outlet) of U = (1.1452812 0.0009651106 0)
    max(outlet) of p = 0

Time = 0.55

Courant Number mean: 0.50127539 max: 0.57798321
DILUPBiCG:  Solving for Ux, Initial residual = 0.029419858, Final residual = 4.0285413e-10, No Iterations 4
DILUPBiCG:  Solving for Uy, Initial residual = 0.033382506, Final residual = 1.0401503e-09, No Iterations 4
GAMG:  Solving for p, Initial residual = 0.0023322781, Final residual = 2.9393522e-07, No Iterations 5
time step continuity errors : sum local = 2.5151651e-09, global = 2.0414802e-10, cumulative = 2.5699884e-08
ExecutionTime = 0.3 s  ClockTime = 0 s

fieldMinMax minmaxdomain write:
    min(U) = (0.92117995 0.036387418 0) in cell 0 at location (0.05 -0.45 0.05)
    max(U) = (0.92117995 0.036387418 0) in cell 0 at location (0.05 -0.45 0.05)
    min(p) = 0 in cell 99 at location (10 -0.45 0.05)
    max(p) = 2.4391722 in cell 900 at location (0.05 0.45 0.05)

surfaceFieldValue inMassFlow write:
    sum(inlet) of phi = -0.1

surfaceFieldValue outMassFlow write:
    sum(outlet) of phi = 0.1

surfaceFieldValue inPre write:
    weightedAverage(inlet) of phi = -0.01
    weightedAverage(inlet) of U = (1 0 0)
    weightedAverage(inlet) of p = 2.2990518

surfaceFieldValue outMax write:
    max(outlet) of U = (1.1555467 0.00089420984 0)
    max(outlet) of p = 0

Time = 0.6

Courant Number mean: 0.50135573 max: 0.58197786
DILUPBiCG:  Solving for Ux, Initial residual = 0.026278343, Final residual = 3.7611203e-10, No Iterations 4
DILUPBiCG:  Solving for Uy, Initial residual = 0.02937407, Final residual = 9.2604913e-10, No Iterations 4
GAMG:  Solving for p, Initial residual = 0.0022948132, Final residual = 2.6804035e-07, No Iterations 5
time step continuity errors : sum local = 2.2114025e-09, global = 1.843344e-10, cumulative = 2.5884218e-08
ExecutionTime = 0.3 s  ClockTime = 0 s

fieldMinMax minmaxdomain write:
    min(U) = (0.92077344 0.036230019 0) in cell 0 at location (0.05 -0.45 0.05)
    max(U) = (0.92077344 0.036230019 0) in cell 0 at location (0.05 -0.45 0.05)
    min(p) = 0 in cell 99 at location (10 -0.45 0.05)
    max(p) = 2.3721888 in cell 900 at location (0.05 0.45 0.05)

surfaceFieldValue inMassFlow write:
    sum(inlet) of phi = -0.1

surfaceFieldValue outMassFlow write:
    sum(outlet) of phi = 0.1

surfaceFieldValue inPre write:
    weightedAverage(inlet) of phi = -0.01
    weightedAverage(inlet) of U = (1 0 0)
    weightedAverage(inlet) of p = 2.2317462

surfaceFieldValue outMax write:
    max(outlet) of U = (1.1656295 0.00079069867 0)
    max(outlet) of p = 0

Time = 0.65

Courant Number mean: 0.5014308 max: 0.58551393
DILUPBiCG:  Solving for Ux, Initial residual = 0.023622803, Final residual = 3.6821835e-10, No Iterations 4
DILUPBiCG:  Solving for Uy, Initial residual = 0.026065195, Final residual = 8.2871519e-10, No Iterations 4
GAMG:  Solving for p, Initial residual = 0.0022150994, Final residual = 2.3920198e-07, No Iterations 5
time step continuity errors : sum local = 1.9080947e-09, global = 1.7012311e-10, cumulative = 2.6054341e-08
ExecutionTime = 0.32 s  ClockTime = 0 s

fieldMinMax minmaxdomain write:
    min(U) = (0.92034718 0.036097599 0) in cell 0 at location (0.05 -0.45 0.05)
    max(U) = (0.92034718 0.036097599 0) in cell 0 at location (0.05 -0.45 0.05)
    min(p) = 0 in cell 99 at location (10 -0.45 0.05)
    max(p) = 2.3126914 in cell 900 at location (0.05 0.45 0.05)

surfaceFieldValue inMassFlow write:
    sum(inlet) of phi = -0.1

surfaceFieldValue outMassFlow write:
    sum(outlet) of phi = 0.1

surfaceFieldValue inPre write:
    weightedAverage(inlet) of phi = -0.01
    weightedAverage(inlet) of U = (1 0 0)
    weightedAverage(inlet) of p = 2.1720307

surfaceFieldValue outMax write:
    max(outlet) of U = (1.1754881 0.00067085746 0)
    max(outlet) of p = 0

Time = 0.7

Courant Number mean: 0.50150107 max: 0.58919083
DILUPBiCG:  Solving for Ux, Initial residual = 0.021351881, Final residual = 3.565716e-10, No Iterations 4
DILUPBiCG:  Solving for Uy, Initial residual = 0.023276624, Final residual = 7.5017917e-10, No Iterations 4
GAMG:  Solving for p, Initial residual = 0.0020390905, Final residual = 2.1785225e-07, No Iterations 5
time step continuity errors : sum local = 1.6851379e-09, global = 1.5962417e-10, cumulative = 2.6213965e-08
ExecutionTime = 0.32 s  ClockTime = 0 s

fieldMinMax minmaxdomain write:
    min(U) = (0.91996182 0.035992046 0) in cell 0 at location (0.05 -0.45 0.05)
    max(U) = (0.91996182 0.035992046 0) in cell 0 at location (0.05 -0.45 0.05)
    min(p) = 0 in cell 99 at location (10 -0.45 0.05)
    max(p) = 2.259629 in cell 900 at location (0.05 0.45 0.05)

surfaceFieldValue inMassFlow write:
    sum(inlet) of phi = -0.1

surfaceFieldValue outMassFlow write:
    sum(outlet) of phi = 0.1

surfaceFieldValue inPre write:
    weightedAverage(inlet) of phi = -0.01
    weightedAverage(inlet) of U = (1 0 0)
    weightedAverage(inlet) of p = 2.1188275

surfaceFieldValue outMax write:
    max(outlet) of U = (1.1850938 0.00054816802 0)
    max(outlet) of p = 0

Time = 0.75

Courant Number mean: 0.50156707 max: 0.59278093
DILUPBiCG:  Solving for Ux, Initial residual = 0.019395322, Final residual = 3.3820113e-10, No Iterations 4
DILUPBiCG:  Solving for Uy, Initial residual = 0.02091543, Final residual = 6.7734973e-10, No Iterations 4
GAMG:  Solving for p, Initial residual = 0.001810802, Final residual = 2.1034434e-07, No Iterations 5
time step continuity errors : sum local = 1.581649e-09, global = 1.5365496e-10, cumulative = 2.636762e-08
ExecutionTime = 0.32 s  ClockTime = 0 s

fieldMinMax minmaxdomain write:
    min(U) = (0.91964159 0.035911896 0) in cell 0 at location (0.05 -0.45 0.05)
    max(U) = (0.91964159 0.035911896 0) in cell 0 at location (0.05 -0.45 0.05)
    min(p) = 0 in cell 99 at location (10 -0.45 0.05)
    max(p) = 2.2121394 in cell 900 at location (0.05 0.45 0.05)

surfaceFieldValue inMassFlow write:
    sum(inlet) of phi = -0.1

surfaceFieldValue outMassFlow write:
    sum(outlet) of phi = 0.1

surfaceFieldValue inPre write:
    weightedAverage(inlet) of phi = -0.01
    weightedAverage(inlet) of U = (1 0 0)
    weightedAverage(inlet) of p = 2.0712527

surfaceFieldValue outMax write:
    max(outlet) of U = (1.1944281 0.00043224445 0)
    max(outlet) of p = 0

Time = 0.8

Courant Number mean: 0.5016291 max: 0.59746045
DILUPBiCG:  Solving for Ux, Initial residual = 0.01761891, Final residual = 3.0811186e-10, No Iterations 4
DILUPBiCG:  Solving for Uy, Initial residual = 0.018901632, Final residual = 6.1210634e-10, No Iterations 4
GAMG:  Solving for p, Initial residual = 0.0015685843, Final residual = 2.13565e-07, No Iterations 5
time step continuity errors : sum local = 1.5639733e-09, global = 1.5002105e-10, cumulative = 2.6517641e-08
ExecutionTime = 0.32 s  ClockTime = 0 s

fieldMinMax minmaxdomain write:
    min(U) = (0.91939064 0.035854063 0) in cell 0 at location (0.05 -0.45 0.05)
    max(U) = (0.91939064 0.035854063 0) in cell 0 at location (0.05 -0.45 0.05)
    min(p) = 0 in cell 99 at location (10 -0.45 0.05)
    max(p) = 2.1694972 in cell 900 at location (0.05 0.45 0.05)

surfaceFieldValue inMassFlow write:
    sum(inlet) of phi = -0.1

surfaceFieldValue outMassFlow write:
    sum(outlet) of phi = 0.1

surfaceFieldValue inPre write:
    weightedAverage(inlet) of phi = -0.01
    weightedAverage(inlet) of U = (1 0 0)
    weightedAverage(inlet) of p = 2.0285643

surfaceFieldValue outMax write:
    max(outlet) of U = (1.2034821 0.0003293147 0)
    max(outlet) of p = 0

Time = 0.85

Courant Number mean: 0.50168736 max: 0.60197536
DILUPBiCG:  Solving for Ux, Initial residual = 0.015973528, Final residual = 2.6156643e-10, No Iterations 4
DILUPBiCG:  Solving for Uy, Initial residual = 0.017152888, Final residual = 5.5525335e-10, No Iterations 4
GAMG:  Solving for p, Initial residual = 0.0013552378, Final residual = 2.1803039e-07, No Iterations 5
time step continuity errors : sum local = 1.5579094e-09, global = 1.4402831e-10, cumulative = 2.666167e-08
ExecutionTime = 0.32 s  ClockTime = 0 s

fieldMinMax minmaxdomain write:
    min(U) = (0.91920302 0.03581483 0) in cell 0 at location (0.05 -0.45 0.05)
    max(U) = (0.91920302 0.03581483 0) in cell 0 at location (0.05 -0.45 0.05)
    min(p) = 0 in cell 99 at location (10 -0.45 0.05)
    max(p) = 2.1310926 in cell 900 at location (0.05 0.45 0.05)

surfaceFieldValue inMassFlow write:
    sum(inlet) of phi = -0.1

surfaceFieldValue outMassFlow write:
    sum(outlet) of phi = 0.1

surfaceFieldValue inPre write:
    weightedAverage(inlet) of phi = -0.01
    weightedAverage(inlet) of U = (1 0 0)
    weightedAverage(inlet) of p = 1.9901402

surfaceFieldValue outMax write:
    max(outlet) of U = (1.2122533 0.00024291896 0)
    max(outlet) of p = 0

Time = 0.9

Courant Number mean: 0.50174229 max: 0.60634273
DILUPBiCG:  Solving for Ux, Initial residual = 0.014518532, Final residual = 2.057454e-10, No Iterations 4
DILUPBiCG:  Solving for Uy, Initial residual = 0.0156329, Final residual = 5.0375994e-10, No Iterations 4
GAMG:  Solving for p, Initial residual = 0.0011825702, Final residual = 2.199109e-07, No Iterations 5
time step continuity errors : sum local = 1.5359044e-09, global = 1.3308119e-10, cumulative = 2.6794751e-08
ExecutionTime = 0.34 s  ClockTime = 0 s

fieldMinMax minmaxdomain write:
    min(U) = (0.91906865 0.035790441 0) in cell 0 at location (0.05 -0.45 0.05)
    max(U) = (0.91906865 0.035790441 0) in cell 0 at location (0.05 -0.45 0.05)
    min(p) = 0 in cell 99 at location (10 -0.45 0.05)
    max(p) = 2.0964051 in cell 900 at location (0.05 0.45 0.05)

surfaceFieldValue inMassFlow write:
    sum(inlet) of phi = -0.1

surfaceFieldValue outMassFlow write:
    sum(outlet) of phi = 0.1

surfaceFieldValue inPre write:
    weightedAverage(inlet) of phi = -0.01
    weightedAverage(inlet) of U = (1 0 0)
    weightedAverage(inlet) of p = 1.9554504

surfaceFieldValue outMax write:
    max(outlet) of U = (1.2207439 0.00018305192 0)
    max(outlet) of p = 0

Time = 0.95

Courant Number mean: 0.5017939 max: 0.61056094
DILUPBiCG:  Solving for Ux, Initial residual = 0.013244644, Final residual = 1.8593928e-10, No Iterations 4
DILUPBiCG:  Solving for Uy, Initial residual = 0.014332126, Final residual = 4.5907554e-10, No Iterations 4
GAMG:  Solving for p, Initial residual = 0.0010325559, Final residual = 2.1239752e-07, No Iterations 5
time step continuity errors : sum local = 1.4522697e-09, global = 1.1652073e-10, cumulative = 2.6911272e-08
ExecutionTime = 0.34 s  ClockTime = 0 s

fieldMinMax minmaxdomain write:
    min(U) = (0.9189766 0.035777407 0) in cell 0 at location (0.05 -0.45 0.05)
    max(U) = (0.9189766 0.035777407 0) in cell 0 at location (0.05 -0.45 0.05)
    min(p) = 0 in cell 99 at location (10 -0.45 0.05)
    max(p) = 2.0649916 in cell 900 at location (0.05 0.45 0.05)

surfaceFieldValue inMassFlow write:
    sum(inlet) of phi = -0.1

surfaceFieldValue outMassFlow write:
    sum(outlet) of phi = 0.1

surfaceFieldValue inPre write:
    weightedAverage(inlet) of phi = -0.01
    weightedAverage(inlet) of U = (1 0 0)
    weightedAverage(inlet) of p = 1.9240453

surfaceFieldValue outMax write:
    max(outlet) of U = (1.22896 0.00014068323 0)
    max(outlet) of p = 0

Time = 1

Courant Number mean: 0.50184287 max: 0.61464026
DILUPBiCG:  Solving for Ux, Initial residual = 0.012120842, Final residual = 1.6449119e-10, No Iterations 4
DILUPBiCG:  Solving for Uy, Initial residual = 0.013178803, Final residual = 4.1865462e-10, No Iterations 4
GAMG:  Solving for p, Initial residual = 0.00093403368, Final residual = 9.6589235e-07, No Iterations 4
time step continuity errors : sum local = 6.4752949e-09, global = 5.5320587e-10, cumulative = 2.7464477e-08
ExecutionTime = 0.35 s  ClockTime = 0 s

fieldMinMax minmaxdomain write:
    min(U) = (0.91891688 0.035772649 0) in cell 0 at location (0.05 -0.45 0.05)
    max(U) = (0.91891688 0.035772649 0) in cell 0 at location (0.05 -0.45 0.05)
    min(p) = 0 in cell 99 at location (10 -0.45 0.05)
    max(p) = 2.0364944 in cell 900 at location (0.05 0.45 0.05)

surfaceFieldValue inMassFlow write:
    sum(inlet) of phi = -0.1

surfaceFieldValue outMassFlow write:
    sum(outlet) of phi = 0.10000001

surfaceFieldValue inPre write:
    weightedAverage(inlet) of phi = -0.01
    weightedAverage(inlet) of U = (1 0 0)
    weightedAverage(inlet) of p = 1.8955619

surfaceFieldValue outMax write:
    max(outlet) of U = (1.23691 0.00010616992 0)
    max(outlet) of p = 0

Time = 1.05

Courant Number mean: 0.50188907 max: 0.6185893
DILUPBiCG:  Solving for Ux, Initial residual = 0.011125632, Final residual = 1.5556199e-10, No Iterations 4
DILUPBiCG:  Solving for Uy, Initial residual = 0.012157278, Final residual = 3.8426666e-10, No Iterations 4
GAMG:  Solving for p, Initial residual = 0.00086639823, Final residual = 8.0895902e-07, No Iterations 4
time step continuity errors : sum local = 5.3250385e-09, global = 4.657e-10, cumulative = 2.7930177e-08
ExecutionTime = 0.37 s  ClockTime = 0 s

fieldMinMax minmaxdomain write:
    min(U) = (0.91888067 0.035773589 0) in cell 0 at location (0.05 -0.45 0.05)
    max(U) = (0.91888067 0.035773589 0) in cell 0 at location (0.05 -0.45 0.05)
    min(p) = 0 in cell 99 at location (10 -0.45 0.05)
    max(p) = 2.0105153 in cell 0 at location (0.05 -0.45 0.05)

surfaceFieldValue inMassFlow write:
    sum(inlet) of phi = -0.1

surfaceFieldValue outMassFlow write:
    sum(outlet) of phi = 0.10000001

surfaceFieldValue inPre write:
    weightedAverage(inlet) of phi = -0.01
    weightedAverage(inlet) of U = (1 0 0)
    weightedAverage(inlet) of p = 1.8696008

surfaceFieldValue outMax write:
    max(outlet) of U = (1.2446028 7.879339e-05 0)
    max(outlet) of p = 0

Time = 1.1

Courant Number mean: 0.50193248 max: 0.62241095
DILUPBiCG:  Solving for Ux, Initial residual = 0.01023915, Final residual = 1.448328e-10, No Iterations 4
DILUPBiCG:  Solving for Uy, Initial residual = 0.01125104, Final residual = 3.5463719e-10, No Iterations 4
GAMG:  Solving for p, Initial residual = 0.00078625713, Final residual = 6.565989e-07, No Iterations 4
time step continuity errors : sum local = 4.2493888e-09, global = 3.7149135e-10, cumulative = 2.8301669e-08
ExecutionTime = 0.37 s  ClockTime = 0 s

fieldMinMax minmaxdomain write:
    min(U) = (0.91886132 0.035778114 0) in cell 0 at location (0.05 -0.45 0.05)
    max(U) = (0.91886132 0.035778114 0) in cell 0 at location (0.05 -0.45 0.05)
    min(p) = 0 in cell 99 at location (10 -0.45 0.05)
    max(p) = 1.9868534 in cell 900 at location (0.05 0.45 0.05)

surfaceFieldValue inMassFlow write:
    sum(inlet) of phi = -0.1

surfaceFieldValue outMassFlow write:
    sum(outlet) of phi = 0.10000001

surfaceFieldValue inPre write:
    weightedAverage(inlet) of phi = -0.01
    weightedAverage(inlet) of U = (1 0 0)
    weightedAverage(inlet) of p = 1.8459578

surfaceFieldValue outMax write:
    max(outlet) of U = (1.2520485 5.7604973e-05 0)
    max(outlet) of p = 0

Time = 1.15

Courant Number mean: 0.50197375 max: 0.62611201
DILUPBiCG:  Solving for Ux, Initial residual = 0.0094470684, Final residual = 1.3483586e-10, No Iterations 4
DILUPBiCG:  Solving for Uy, Initial residual = 0.010426981, Final residual = 3.2583703e-10, No Iterations 4
GAMG:  Solving for p, Initial residual = 0.00069733622, Final residual = 5.2442524e-07, No Iterations 4
time step continuity errors : sum local = 3.3407985e-09, global = 2.8465741e-10, cumulative = 2.8586326e-08
ExecutionTime = 0.37 s  ClockTime = 0 s

fieldMinMax minmaxdomain write:
    min(U) = (0.91885351 0.035784591 0) in cell 0 at location (0.05 -0.45 0.05)
    max(U) = (0.91885351 0.035784591 0) in cell 0 at location (0.05 -0.45 0.05)
    min(p) = 0 in cell 99 at location (10 -0.45 0.05)
    max(p) = 1.9652259 in cell 900 at location (0.05 0.45 0.05)

surfaceFieldValue inMassFlow write:
    sum(inlet) of phi = -0.1

surfaceFieldValue outMassFlow write:
    sum(outlet) of phi = 0.10000001

surfaceFieldValue inPre write:
    weightedAverage(inlet) of phi = -0.01
    weightedAverage(inlet) of U = (1 0 0)
    weightedAverage(inlet) of p = 1.8243495

surfaceFieldValue outMax write:
    max(outlet) of U = (1.2592572 4.1568244e-05 0)
    max(outlet) of p = 0

Time = 1.2

Courant Number mean: 0.50201279 max: 0.62969988
DILUPBiCG:  Solving for Ux, Initial residual = 0.0087361985, Final residual = 1.2961276e-10, No Iterations 4
DILUPBiCG:  Solving for Uy, Initial residual = 0.0096978857, Final residual = 3.0057961e-10, No Iterations 4
GAMG:  Solving for p, Initial residual = 0.00061782116, Final residual = 4.2537515e-07, No Iterations 4
time step continuity errors : sum local = 2.6702554e-09, global = 2.1236165e-10, cumulative = 2.8798688e-08
ExecutionTime = 0.37 s  ClockTime = 0 s

fieldMinMax minmaxdomain write:
    min(U) = (0.91885323 0.035791805 0) in cell 0 at location (0.05 -0.45 0.05)
    max(U) = (0.91885323 0.035791805 0) in cell 0 at location (0.05 -0.45 0.05)
    min(p) = 0 in cell 99 at location (10 -0.45 0.05)
    max(p) = 1.9454252 in cell 900 at location (0.05 0.45 0.05)

surfaceFieldValue inMassFlow write:
    sum(inlet) of phi = -0.1

surfaceFieldValue outMassFlow write:
    sum(outlet) of phi = 0.1

surfaceFieldValue inPre write:
    weightedAverage(inlet) of phi = -0.01
    weightedAverage(inlet) of U = (1 0 0)
    weightedAverage(inlet) of p = 1.8045679

surfaceFieldValue outMax write:
    max(outlet) of U = (1.2662383 2.9660635e-05 0)
    max(outlet) of p = 0

Time = 1.25

Courant Number mean: 0.50204981 max: 0.63317452
DILUPBiCG:  Solving for Ux, Initial residual = 0.0080956084, Final residual = 1.2769152e-10, No Iterations 4
DILUPBiCG:  Solving for Uy, Initial residual = 0.0090334397, Final residual = 2.7712761e-10, No Iterations 4
GAMG:  Solving for p, Initial residual = 0.00054175782, Final residual = 3.4505138e-07, No Iterations 4
time step continuity errors : sum local = 2.1366171e-09, global = 1.5540623e-10, cumulative = 2.8954094e-08
ExecutionTime = 0.37 s  ClockTime = 0 s

fieldMinMax minmaxdomain write:
    min(U) = (0.91885755 0.035798909 0) in cell 0 at location (0.05 -0.45 0.05)
    max(U) = (0.91885755 0.035798909 0) in cell 0 at location (0.05 -0.45 0.05)
    min(p) = 0 in cell 99 at location (10 -0.45 0.05)
    max(p) = 1.9272621 in cell 900 at location (0.05 0.45 0.05)

surfaceFieldValue inMassFlow write:
    sum(inlet) of phi = -0.1

surfaceFieldValue outMassFlow write:
    sum(outlet) of phi = 0.1

surfaceFieldValue inPre write:
    weightedAverage(inlet) of phi = -0.01
    weightedAverage(inlet) of U = (1 0 0)
    weightedAverage(inlet) of p = 1.7864237

surfaceFieldValue outMax write:
    max(outlet) of U = (1.2730006 2.0963658e-05 0)
    max(outlet) of p = 0

Time = 1.3

Courant Number mean: 0.50208503 max: 0.6365427
DILUPBiCG:  Solving for Ux, Initial residual = 0.0075166869, Final residual = 1.2707103e-10, No Iterations 4
DILUPBiCG:  Solving for Uy, Initial residual = 0.0084373702, Final residual = 2.5489675e-10, No Iterations 4
GAMG:  Solving for p, Initial residual = 0.00048870837, Final residual = 2.8769457e-07, No Iterations 4
time step continuity errors : sum local = 1.758873e-09, global = 1.132766e-10, cumulative = 2.9067371e-08
ExecutionTime = 0.38 s  ClockTime = 0 s

fieldMinMax minmaxdomain write:
    min(U) = (0.91886436 0.035805358 0) in cell 0 at location (0.05 -0.45 0.05)
    max(U) = (0.91886436 0.035805358 0) in cell 0 at location (0.05 -0.45 0.05)
    min(p) = 0 in cell 99 at location (10 -0.45 0.05)
    max(p) = 1.9105721 in cell 900 at location (0.05 0.45 0.05)

surfaceFieldValue inMassFlow write:
    sum(inlet) of phi = -0.1

surfaceFieldValue outMassFlow write:
    sum(outlet) of phi = 0.1

surfaceFieldValue inPre write:
    weightedAverage(inlet) of phi = -0.01
    weightedAverage(inlet) of U = (1 0 0)
    weightedAverage(inlet) of p = 1.7697522

surfaceFieldValue outMax write:
    max(outlet) of U = (1.2795524 1.4687337e-05 0)
    max(outlet) of p = 0

Time = 1.35

Courant Number mean: 0.50211854 max: 0.6398098
DILUPBiCG:  Solving for Ux, Initial residual = 0.0069951554, Final residual = 1.2754824e-10, No Iterations 4
DILUPBiCG:  Solving for Uy, Initial residual = 0.0078979816, Final residual = 2.3367308e-10, No Iterations 4
GAMG:  Solving for p, Initial residual = 0.0004407742, Final residual = 2.5119155e-07, No Iterations 4
time step continuity errors : sum local = 1.5174767e-09, global = 8.4666348e-11, cumulative = 2.9152037e-08
ExecutionTime = 0.38 s  ClockTime = 0 s

fieldMinMax minmaxdomain write:
    min(U) = (0.91887221 0.035810851 0) in cell 0 at location (0.05 -0.45 0.05)
    max(U) = (0.91887221 0.035810851 0) in cell 0 at location (0.05 -0.45 0.05)
    min(p) = 0 in cell 99 at location (10 -0.45 0.05)
    max(p) = 1.8952093 in cell 900 at location (0.05 0.45 0.05)

surfaceFieldValue inMassFlow write:
    sum(inlet) of phi = -0.1

surfaceFieldValue outMassFlow write:
    sum(outlet) of phi = 0.1

surfaceFieldValue inPre write:
    weightedAverage(inlet) of phi = -0.01
    weightedAverage(inlet) of U = (1 0 0)
    weightedAverage(inlet) of p = 1.7544078

surfaceFieldValue outMax write:
    max(outlet) of U = (1.2859011 1.0178171e-05 0)
    max(outlet) of p = 0

Time = 1.4

Courant Number mean: 0.50215051 max: 0.64297609
DILUPBiCG:  Solving for Ux, Initial residual = 0.0065957388, Final residual = 1.3133822e-10, No Iterations 4
DILUPBiCG:  Solving for Uy, Initial residual = 0.0074081737, Final residual = 2.1444448e-10, No Iterations 4
GAMG:  Solving for p, Initial residual = 0.0003970978, Final residual = 2.2147997e-07, No Iterations 4
time step continuity errors : sum local = 1.3231273e-09, global = 6.6604461e-11, cumulative = 2.9218641e-08
ExecutionTime = 0.38 s  ClockTime = 0 s

fieldMinMax minmaxdomain write:
    min(U) = (0.9188801 0.035815268 0) in cell 0 at location (0.05 -0.45 0.05)
    max(U) = (0.9188801 0.035815268 0) in cell 0 at location (0.05 -0.45 0.05)
    min(p) = 0 in cell 99 at location (10 -0.45 0.05)
    max(p) = 1.8810452 in cell 900 at location (0.05 0.45 0.05)

surfaceFieldValue inMassFlow write:
    sum(inlet) of phi = -0.1

surfaceFieldValue outMassFlow write:
    sum(outlet) of phi = 0.1

surfaceFieldValue inPre write:
    weightedAverage(inlet) of phi = -0.01
    weightedAverage(inlet) of U = (1 0 0)
    weightedAverage(inlet) of p = 1.7402617

surfaceFieldValue outMax write:
    max(outlet) of U = (1.2920535 7.4430133e-06 0)
    max(outlet) of p = 0

Time = 1.45

Courant Number mean: 0.50218097 max: 0.64604551
DILUPBiCG:  Solving for Ux, Initial residual = 0.0062283478, Final residual = 1.3640163e-10, No Iterations 4
DILUPBiCG:  Solving for Uy, Initial residual = 0.0069622512, Final residual = 1.9757677e-10, No Iterations 4
GAMG:  Solving for p, Initial residual = 0.00036637449, Final residual = 1.9567253e-07, No Iterations 4
time step continuity errors : sum local = 1.1568085e-09, global = 5.5730698e-11, cumulative = 2.9274372e-08
ExecutionTime = 0.38 s  ClockTime = 0 s

fieldMinMax minmaxdomain write:
    min(U) = (0.91888742 0.035818621 0) in cell 0 at location (0.05 -0.45 0.05)
    max(U) = (0.91888742 0.035818621 0) in cell 0 at location (0.05 -0.45 0.05)
    min(p) = 0 in cell 99 at location (10 -0.45 0.05)
    max(p) = 1.8679655 in cell 900 at location (0.05 0.45 0.05)

surfaceFieldValue inMassFlow write:
    sum(inlet) of phi = -0.1

surfaceFieldValue outMassFlow write:
    sum(outlet) of phi = 0.1

surfaceFieldValue inPre write:
    weightedAverage(inlet) of phi = -0.01
    weightedAverage(inlet) of U = (1 0 0)
    weightedAverage(inlet) of p = 1.7271999

surfaceFieldValue outMax write:
    max(outlet) of U = (1.2980159 5.63712e-06 0)
    max(outlet) of p = 0

Time = 1.5

Courant Number mean: 0.50221016 max: 0.64902119
DILUPBiCG:  Solving for Ux, Initial residual = 0.0058881143, Final residual = 1.4185723e-10, No Iterations 4
DILUPBiCG:  Solving for Uy, Initial residual = 0.0065566283, Final residual = 1.8478555e-10, No Iterations 4
GAMG:  Solving for p, Initial residual = 0.00033785628, Final residual = 1.7684903e-07, No Iterations 4
time step continuity errors : sum local = 1.0353422e-09, global = 5.0327559e-11, cumulative = 2.93247e-08
ExecutionTime = 0.4 s  ClockTime = 0 s

fieldMinMax minmaxdomain write:
    min(U) = (0.91889378 0.035821005 0) in cell 0 at location (0.05 -0.45 0.05)
    max(U) = (0.91889378 0.035821005 0) in cell 0 at location (0.05 -0.45 0.05)
    min(p) = 0 in cell 99 at location (10 -0.45 0.05)
    max(p) = 1.8558691 in cell 900 at location (0.05 0.45 0.05)

surfaceFieldValue inMassFlow write:
    sum(inlet) of phi = -0.1

surfaceFieldValue outMassFlow write:
    sum(outlet) of phi = 0.1

surfaceFieldValue inPre write:
    weightedAverage(inlet) of phi = -0.01
    weightedAverage(inlet) of U = (1 0 0)
    weightedAverage(inlet) of p = 1.7151212

surfaceFieldValue outMax write:
    max(outlet) of U = (1.303794 4.0062154e-06 0)
    max(outlet) of p = 0

Time = 1.55

Courant Number mean: 0.50223807 max: 0.65190593
DILUPBiCG:  Solving for Ux, Initial residual = 0.005571921, Final residual = 1.4772934e-10, No Iterations 4
DILUPBiCG:  Solving for Uy, Initial residual = 0.0061807907, Final residual = 1.7452824e-10, No Iterations 4
GAMG:  Solving for p, Initial residual = 0.00030829732, Final residual = 1.5692081e-07, No Iterations 4
time step continuity errors : sum local = 9.1026667e-10, global = 4.5322695e-11, cumulative = 2.9370022e-08
ExecutionTime = 0.4 s  ClockTime = 0 s

fieldMinMax minmaxdomain write:
    min(U) = (0.91889905 0.035822564 0) in cell 0 at location (0.05 -0.45 0.05)
    max(U) = (0.91889905 0.035822564 0) in cell 0 at location (0.05 -0.45 0.05)
    min(p) = 0 in cell 99 at location (10 -0.45 0.05)
    max(p) = 1.8446655 in cell 900 at location (0.05 0.45 0.05)

surfaceFieldValue inMassFlow write:
    sum(inlet) of phi = -0.1

surfaceFieldValue outMassFlow write:
    sum(outlet) of phi = 0.1

surfaceFieldValue inPre write:
    weightedAverage(inlet) of phi = -0.01
    weightedAverage(inlet) of U = (1 0 0)
    weightedAverage(inlet) of p = 1.7039352

surfaceFieldValue outMax write:
    max(outlet) of U = (1.3093932 2.5928273e-06 0)
    max(outlet) of p = 0

Time = 1.6

Courant Number mean: 0.50226482 max: 0.65470256
DILUPBiCG:  Solving for Ux, Initial residual = 0.0052773304, Final residual = 1.5406002e-10, No Iterations 4
DILUPBiCG:  Solving for Uy, Initial residual = 0.0058391922, Final residual = 1.6497608e-10, No Iterations 4
GAMG:  Solving for p, Initial residual = 0.00027965464, Final residual = 1.4126082e-07, No Iterations 4
time step continuity errors : sum local = 8.1236156e-10, global = 4.1602007e-11, cumulative = 2.9411624e-08
ExecutionTime = 0.4 s  ClockTime = 0 s

fieldMinMax minmaxdomain write:
    min(U) = (0.91890318 0.035823461 0) in cell 0 at location (0.05 -0.45 0.05)
    max(U) = (0.91890318 0.035823461 0) in cell 0 at location (0.05 -0.45 0.05)
    min(p) = 0 in cell 99 at location (10 -0.45 0.05)
    max(p) = 1.8342748 in cell 900 at location (0.05 0.45 0.05)

surfaceFieldValue inMassFlow write:
    sum(inlet) of phi = -0.1

surfaceFieldValue outMassFlow write:
    sum(outlet) of phi = 0.1

surfaceFieldValue inPre write:
    weightedAverage(inlet) of phi = -0.01
    weightedAverage(inlet) of U = (1 0 0)
    weightedAverage(inlet) of p = 1.6935618

surfaceFieldValue outMax write:
    max(outlet) of U = (1.3148185 1.319709e-06 0)
    max(outlet) of p = 0

Time = 1.65

Courant Number mean: 0.50229048 max: 0.65741268
DILUPBiCG:  Solving for Ux, Initial residual = 0.0050021561, Final residual = 1.6085009e-10, No Iterations 4
DILUPBiCG:  Solving for Uy, Initial residual = 0.0055241486, Final residual = 1.5655231e-10, No Iterations 4
GAMG:  Solving for p, Initial residual = 0.00025351607, Final residual = 9.4418342e-07, No Iterations 3
time step continuity errors : sum local = 5.3856957e-09, global = 3.7420697e-10, cumulative = 2.9785831e-08
ExecutionTime = 0.4 s  ClockTime = 0 s

fieldMinMax minmaxdomain write:
    min(U) = (0.91890629 0.03582385 0) in cell 0 at location (0.05 -0.45 0.05)
    max(U) = (0.91890629 0.03582385 0) in cell 0 at location (0.05 -0.45 0.05)
    min(p) = 0 in cell 99 at location (10 -0.45 0.05)
    max(p) = 1.8246327 in cell 900 at location (0.05 0.45 0.05)

surfaceFieldValue inMassFlow write:
    sum(inlet) of phi = -0.1

surfaceFieldValue outMassFlow write:
    sum(outlet) of phi = 0.10000001

surfaceFieldValue inPre write:
    weightedAverage(inlet) of phi = -0.01
    weightedAverage(inlet) of U = (1 0 0)
    weightedAverage(inlet) of p = 1.6839366

surfaceFieldValue outMax write:
    max(outlet) of U = (1.3200749 1.581618e-06 0)
    max(outlet) of p = 0

Time = 1.7

Courant Number mean: 0.50231514 max: 0.66003876
DILUPBiCG:  Solving for Ux, Initial residual = 0.0047446828, Final residual = 1.6836946e-10, No Iterations 4
DILUPBiCG:  Solving for Uy, Initial residual = 0.0052300425, Final residual = 1.4855114e-10, No Iterations 4
GAMG:  Solving for p, Initial residual = 0.00023594643, Final residual = 8.4287442e-07, No Iterations 3
time step continuity errors : sum local = 4.7710439e-09, global = 3.39427e-10, cumulative = 3.0125258e-08
ExecutionTime = 0.4 s  ClockTime = 0 s

fieldMinMax minmaxdomain write:
    min(U) = (0.91890838 0.035823897 0) in cell 0 at location (0.05 -0.45 0.05)
    max(U) = (0.91890838 0.035823897 0) in cell 0 at location (0.05 -0.45 0.05)
    min(p) = 0 in cell 99 at location (10 -0.45 0.05)
    max(p) = 1.8156496 in cell 900 at location (0.05 0.45 0.05)

surfaceFieldValue inMassFlow write:
    sum(inlet) of phi = -0.1

surfaceFieldValue outMassFlow write:
    sum(outlet) of phi = 0.10000001

surfaceFieldValue inPre write:
    weightedAverage(inlet) of phi = -0.01
    weightedAverage(inlet) of U = (1 0 0)
    weightedAverage(inlet) of p = 1.6749703

surfaceFieldValue outMax write:
    max(outlet) of U = (1.3251668 2.4576048e-06 0)
    max(outlet) of p = 0

Time = 1.75

Courant Number mean: 0.50233881 max: 0.66258301
DILUPBiCG:  Solving for Ux, Initial residual = 0.004503344, Final residual = 1.7748294e-10, No Iterations 4
DILUPBiCG:  Solving for Uy, Initial residual = 0.0049568669, Final residual = 1.412509e-10, No Iterations 4
GAMG:  Solving for p, Initial residual = 0.00021909723, Final residual = 7.7186725e-07, No Iterations 3
time step continuity errors : sum local = 4.3375164e-09, global = 3.1957519e-10, cumulative = 3.0444834e-08
ExecutionTime = 0.41 s  ClockTime = 0 s

fieldMinMax minmaxdomain write:
    min(U) = (0.91890972 0.035823716 0) in cell 0 at location (0.05 -0.45 0.05)
    max(U) = (0.91890972 0.035823716 0) in cell 0 at location (0.05 -0.45 0.05)
    min(p) = 0 in cell 99 at location (10 -0.45 0.05)
    max(p) = 1.8072972 in cell 900 at location (0.05 0.45 0.05)

surfaceFieldValue inMassFlow write:
    sum(inlet) of phi = -0.1

surfaceFieldValue outMassFlow write:
    sum(outlet) of phi = 0.10000001

surfaceFieldValue inPre write:
    weightedAverage(inlet) of phi = -0.01
    weightedAverage(inlet) of U = (1 0 0)
    weightedAverage(inlet) of p = 1.6666341

surfaceFieldValue outMax write:
    max(outlet) of U = (1.3300987 3.2011038e-06 0)
    max(outlet) of p = 0

Time = 1.8

Courant Number mean: 0.50236154 max: 0.66504761
DILUPBiCG:  Solving for Ux, Initial residual = 0.0042767382, Final residual = 1.8802074e-10, No Iterations 4
DILUPBiCG:  Solving for Uy, Initial residual = 0.0047023031, Final residual = 1.3411353e-10, No Iterations 4
GAMG:  Solving for p, Initial residual = 0.00020445209, Final residual = 7.0752659e-07, No Iterations 3
time step continuity errors : sum local = 3.9487892e-09, global = 2.9925105e-10, cumulative = 3.0744085e-08
ExecutionTime = 0.41 s  ClockTime = 0 s

fieldMinMax minmaxdomain write:
    min(U) = (0.91891046 0.035823409 0) in cell 0 at location (0.05 -0.45 0.05)
    max(U) = (0.91891046 0.035823409 0) in cell 0 at location (0.05 -0.45 0.05)
    min(p) = 0 in cell 99 at location (10 -0.45 0.05)
    max(p) = 1.7995095 in cell 900 at location (0.05 0.45 0.05)

surfaceFieldValue inMassFlow write:
    sum(inlet) of phi = -0.1

surfaceFieldValue outMassFlow write:
    sum(outlet) of phi = 0.10000001

surfaceFieldValue inPre write:
    weightedAverage(inlet) of phi = -0.01
    weightedAverage(inlet) of U = (1 0 0)
    weightedAverage(inlet) of p = 1.6588622

surfaceFieldValue outMax write:
    max(outlet) of U = (1.3348749 3.8206364e-06 0)
    max(outlet) of p = 0

Time = 1.85

Courant Number mean: 0.50238337 max: 0.6674349
DILUPBiCG:  Solving for Ux, Initial residual = 0.0040636929, Final residual = 2.0031851e-10, No Iterations 4
DILUPBiCG:  Solving for Uy, Initial residual = 0.0044653191, Final residual = 9.5753188e-09, No Iterations 3
GAMG:  Solving for p, Initial residual = 0.00019036947, Final residual = 6.4625382e-07, No Iterations 3
time step continuity errors : sum local = 3.5834928e-09, global = 2.795525e-10, cumulative = 3.1023637e-08
ExecutionTime = 0.41 s  ClockTime = 0 s

fieldMinMax minmaxdomain write:
    min(U) = (0.91891074 0.035823052 0) in cell 0 at location (0.05 -0.45 0.05)
    max(U) = (0.91891074 0.035823052 0) in cell 0 at location (0.05 -0.45 0.05)
    min(p) = 0 in cell 99 at location (10 -0.45 0.05)
    max(p) = 1.7922429 in cell 900 at location (0.05 0.45 0.05)

surfaceFieldValue inMassFlow write:
    sum(inlet) of phi = -0.1

surfaceFieldValue outMassFlow write:
    sum(outlet) of phi = 0.10000001

surfaceFieldValue inPre write:
    weightedAverage(inlet) of phi = -0.01
    weightedAverage(inlet) of U = (1 0 0)
    weightedAverage(inlet) of p = 1.6516108

surfaceFieldValue outMax write:
    max(outlet) of U = (1.3394998 4.3115031e-06 0)
    max(outlet) of p = 0

Time = 1.9

Courant Number mean: 0.50240432 max: 0.66974748
DILUPBiCG:  Solving for Ux, Initial residual = 0.0038631436, Final residual = 2.1548657e-10, No Iterations 4
DILUPBiCG:  Solving for Uy, Initial residual = 0.00424389, Final residual = 9.1504525e-09, No Iterations 3
GAMG:  Solving for p, Initial residual = 0.0001789727, Final residual = 5.8771352e-07, No Iterations 3
time step continuity errors : sum local = 3.2389325e-09, global = 2.6183738e-10, cumulative = 3.1285475e-08
ExecutionTime = 0.41 s  ClockTime = 0 s

fieldMinMax minmaxdomain write:
    min(U) = (0.91891071 0.035822698 0) in cell 0 at location (0.05 -0.45 0.05)
    max(U) = (0.91891071 0.035822698 0) in cell 0 at location (0.05 -0.45 0.05)
    min(p) = 0 in cell 99 at location (10 -0.45 0.05)
    max(p) = 1.785455 in cell 900 at location (0.05 0.45 0.05)

surfaceFieldValue inMassFlow write:
    sum(inlet) of phi = -0.1

surfaceFieldValue outMassFlow write:
    sum(outlet) of phi = 0.10000001

surfaceFieldValue inPre write:
    weightedAverage(inlet) of phi = -0.01
    weightedAverage(inlet) of U = (1 0 0)
    weightedAverage(inlet) of p = 1.6448376

surfaceFieldValue outMax write:
    max(outlet) of U = (1.3439773 4.6754943e-06 0)
    max(outlet) of p = 0

Time = 1.95

Courant Number mean: 0.50242445 max: 0.67198634
DILUPBiCG:  Solving for Ux, Initial residual = 0.0036741527, Final residual = 2.4377143e-10, No Iterations 4
DILUPBiCG:  Solving for Uy, Initial residual = 0.0040372655, Final residual = 8.742622e-09, No Iterations 3
GAMG:  Solving for p, Initial residual = 0.00016788828, Final residual = 5.415379e-07, No Iterations 3
time step continuity errors : sum local = 2.9671504e-09, global = 2.4554482e-10, cumulative = 3.1531019e-08
ExecutionTime = 0.41 s  ClockTime = 0 s

fieldMinMax minmaxdomain write:
    min(U) = (0.91891049 0.035822381 0) in cell 0 at location (0.05 -0.45 0.05)
    max(U) = (0.91891049 0.035822381 0) in cell 0 at location (0.05 -0.45 0.05)
    min(p) = 0 in cell 99 at location (10 -0.45 0.05)
    max(p) = 1.7791079 in cell 900 at location (0.05 0.45 0.05)

surfaceFieldValue inMassFlow write:
    sum(inlet) of phi = -0.1

surfaceFieldValue outMassFlow write:
    sum(outlet) of phi = 0.1

surfaceFieldValue inPre write:
    weightedAverage(inlet) of phi = -0.01
    weightedAverage(inlet) of U = (1 0 0)
    weightedAverage(inlet) of p = 1.6385045

surfaceFieldValue outMax write:
    max(outlet) of U = (1.3483115 4.9260064e-06 0)
    max(outlet) of p = 0

Time = 2

Courant Number mean: 0.50244378 max: 0.67415353
DILUPBiCG:  Solving for Ux, Initial residual = 0.0034958628, Final residual = 2.8837827e-10, No Iterations 4
DILUPBiCG:  Solving for Uy, Initial residual = 0.0038438658, Final residual = 8.367611e-09, No Iterations 3
GAMG:  Solving for p, Initial residual = 0.00015768286, Final residual = 4.9938293e-07, No Iterations 3
time step continuity errors : sum local = 2.7211503e-09, global = 2.3034516e-10, cumulative = 3.1761365e-08
ExecutionTime = 0.45 s  ClockTime = 0 s

fieldMinMax minmaxdomain write:
    min(U) = (0.91891016 0.035822119 0) in cell 0 at location (0.05 -0.45 0.05)
    max(U) = (0.91891016 0.035822119 0) in cell 0 at location (0.05 -0.45 0.05)
    min(p) = 0 in cell 99 at location (10 -0.45 0.05)
    max(p) = 1.7731673 in cell 900 at location (0.05 0.45 0.05)

surfaceFieldValue inMassFlow write:
    sum(inlet) of phi = -0.1

surfaceFieldValue outMassFlow write:
    sum(outlet) of phi = 0.1

surfaceFieldValue inPre write:
    weightedAverage(inlet) of phi = -0.01
    weightedAverage(inlet) of U = (1 0 0)
    weightedAverage(inlet) of p = 1.6325774

surfaceFieldValue outMax write:
    max(outlet) of U = (1.3525063 5.0781141e-06 0)
    max(outlet) of p = 0

Time = 2.05

Courant Number mean: 0.50246234 max: 0.67625103
DILUPBiCG:  Solving for Ux, Initial residual = 0.003327492, Final residual = 3.4353784e-10, No Iterations 4
DILUPBiCG:  Solving for Uy, Initial residual = 0.0036624647, Final residual = 8.0123186e-09, No Iterations 3
GAMG:  Solving for p, Initial residual = 0.00014815265, Final residual = 4.5731276e-07, No Iterations 3
time step continuity errors : sum local = 2.4789332e-09, global = 2.1619098e-10, cumulative = 3.1977555e-08
ExecutionTime = 0.45 s  ClockTime = 0 s

fieldMinMax minmaxdomain write:
    min(U) = (0.9189098 0.035821918 0) in cell 0 at location (0.05 -0.45 0.05)
    max(U) = (0.9189098 0.035821918 0) in cell 0 at location (0.05 -0.45 0.05)
    min(p) = 0 in cell 99 at location (10 -0.45 0.05)
    max(p) = 1.7676023 in cell 0 at location (0.05 -0.45 0.05)

surfaceFieldValue inMassFlow write:
    sum(inlet) of phi = -0.1

surfaceFieldValue outMassFlow write:
    sum(outlet) of phi = 0.1

surfaceFieldValue inPre write:
    weightedAverage(inlet) of phi = -0.01
    weightedAverage(inlet) of U = (1 0 0)
    weightedAverage(inlet) of p = 1.6270252

surfaceFieldValue outMax write:
    max(outlet) of U = (1.3565656 5.1488487e-06 0)
    max(outlet) of p = 0

Time = 2.1

Courant Number mean: 0.50248017 max: 0.67828077
DILUPBiCG:  Solving for Ux, Initial residual = 0.0031683515, Final residual = 9.9511034e-09, No Iterations 3
DILUPBiCG:  Solving for Uy, Initial residual = 0.0034921062, Final residual = 7.6684857e-09, No Iterations 3
GAMG:  Solving for p, Initial residual = 0.00014090373, Final residual = 4.1759666e-07, No Iterations 3
time step continuity errors : sum local = 2.252461e-09, global = 2.0298064e-10, cumulative = 3.2180536e-08
ExecutionTime = 0.45 s  ClockTime = 0 s

fieldMinMax minmaxdomain write:
    min(U) = (0.91890945 0.035821775 0) in cell 0 at location (0.05 -0.45 0.05)
    max(U) = (0.91890945 0.035821775 0) in cell 0 at location (0.05 -0.45 0.05)
    min(p) = 0 in cell 99 at location (10 -0.45 0.05)
    max(p) = 1.7623847 in cell 0 at location (0.05 -0.45 0.05)

surfaceFieldValue inMassFlow write:
    sum(inlet) of phi = -0.1

surfaceFieldValue outMassFlow write:
    sum(outlet) of phi = 0.1

surfaceFieldValue inPre write:
    weightedAverage(inlet) of phi = -0.01
    weightedAverage(inlet) of U = (1 0 0)
    weightedAverage(inlet) of p = 1.6218199

surfaceFieldValue outMax write:
    max(outlet) of U = (1.3604933 5.1546874e-06 0)
    max(outlet) of p = 0

Time = 2.15

Courant Number mean: 0.5024973 max: 0.68024467
DILUPBiCG:  Solving for Ux, Initial residual = 0.0030178039, Final residual = 8.851033e-09, No Iterations 3
DILUPBiCG:  Solving for Uy, Initial residual = 0.0033316221, Final residual = 7.3506516e-09, No Iterations 3
GAMG:  Solving for p, Initial residual = 0.00013372283, Final residual = 3.8235718e-07, No Iterations 3
time step continuity errors : sum local = 2.052709e-09, global = 1.9087797e-10, cumulative = 3.2371414e-08
ExecutionTime = 0.47 s  ClockTime = 0 s

fieldMinMax minmaxdomain write:
    min(U) = (0.91890913 0.035821685 0) in cell 0 at location (0.05 -0.45 0.05)
    max(U) = (0.91890913 0.035821685 0) in cell 0 at location (0.05 -0.45 0.05)
    min(p) = 0 in cell 99 at location (10 -0.45 0.05)
    max(p) = 1.7574889 in cell 0 at location (0.05 -0.45 0.05)

surfaceFieldValue inMassFlow write:
    sum(inlet) of phi = -0.1

surfaceFieldValue outMassFlow write:
    sum(outlet) of phi = 0.1

surfaceFieldValue inPre write:
    weightedAverage(inlet) of phi = -0.01
    weightedAverage(inlet) of U = (1 0 0)
    weightedAverage(inlet) of p = 1.6169357

surfaceFieldValue outMax write:
    max(outlet) of U = (1.3642929 5.1108212e-06 0)
    max(outlet) of p = 0

Time = 2.2

Courant Number mean: 0.50251377 max: 0.68214457
DILUPBiCG:  Solving for Ux, Initial residual = 0.0028752938, Final residual = 7.9745668e-09, No Iterations 3
DILUPBiCG:  Solving for Uy, Initial residual = 0.0031801909, Final residual = 7.0446313e-09, No Iterations 3
GAMG:  Solving for p, Initial residual = 0.00012706481, Final residual = 3.5114215e-07, No Iterations 3
time step continuity errors : sum local = 1.8767296e-09, global = 1.7949425e-10, cumulative = 3.2550908e-08
ExecutionTime = 0.47 s  ClockTime = 0 s

fieldMinMax minmaxdomain write:
    min(U) = (0.91890888 0.035821638 0) in cell 0 at location (0.05 -0.45 0.05)
    max(U) = (0.91890888 0.035821638 0) in cell 0 at location (0.05 -0.45 0.05)
    min(p) = 0 in cell 99 at location (10 -0.45 0.05)
    max(p) = 1.7528915 in cell 0 at location (0.05 -0.45 0.05)

surfaceFieldValue inMassFlow write:
    sum(inlet) of phi = -0.1

surfaceFieldValue outMassFlow write:
    sum(outlet) of phi = 0.1

surfaceFieldValue inPre write:
    weightedAverage(inlet) of phi = -0.01
    weightedAverage(inlet) of U = (1 0 0)
    weightedAverage(inlet) of p = 1.6123494

surfaceFieldValue outMax write:
    max(outlet) of U = (1.3679683 5.0300141e-06 0)
    max(outlet) of p = 0

Time = 2.25

Courant Number mean: 0.50252959 max: 0.68398232
DILUPBiCG:  Solving for Ux, Initial residual = 0.0027402846, Final residual = 7.2520281e-09, No Iterations 3
DILUPBiCG:  Solving for Uy, Initial residual = 0.0030370683, Final residual = 6.7463379e-09, No Iterations 3
GAMG:  Solving for p, Initial residual = 0.00012029119, Final residual = 3.2474848e-07, No Iterations 3
time step continuity errors : sum local = 1.7283164e-09, global = 1.6908858e-10, cumulative = 3.2719997e-08
ExecutionTime = 0.47 s  ClockTime = 0 s

fieldMinMax minmaxdomain write:
    min(U) = (0.91890867 0.035821624 0) in cell 0 at location (0.05 -0.45 0.05)
    max(U) = (0.91890867 0.035821624 0) in cell 0 at location (0.05 -0.45 0.05)
    min(p) = 0 in cell 99 at location (10 -0.45 0.05)
    max(p) = 1.7485713 in cell 0 at location (0.05 -0.45 0.05)

surfaceFieldValue inMassFlow write:
    sum(inlet) of phi = -0.1

surfaceFieldValue outMassFlow write:
    sum(outlet) of phi = 0.1

surfaceFieldValue inPre write:
    weightedAverage(inlet) of phi = -0.01
    weightedAverage(inlet) of U = (1 0 0)
    weightedAverage(inlet) of p = 1.6080397

surfaceFieldValue outMax write:
    max(outlet) of U = (1.3715229 4.9227186e-06 0)
    max(outlet) of p = 0

Time = 2.3

Courant Number mean: 0.5025448 max: 0.68575969
DILUPBiCG:  Solving for Ux, Initial residual = 0.0026122807, Final residual = 6.7032927e-09, No Iterations 3
DILUPBiCG:  Solving for Uy, Initial residual = 0.0029017987, Final residual = 6.4694551e-09, No Iterations 3
GAMG:  Solving for p, Initial residual = 0.00011457277, Final residual = 3.0082369e-07, No Iterations 3
time step continuity errors : sum local = 1.5945451e-09, global = 1.5934946e-10, cumulative = 3.2879346e-08
ExecutionTime = 0.47 s  ClockTime = 0 s

fieldMinMax minmaxdomain write:
    min(U) = (0.91890853 0.035821634 0) in cell 0 at location (0.05 -0.45 0.05)
    max(U) = (0.91890853 0.035821634 0) in cell 0 at location (0.05 -0.45 0.05)
    min(p) = 0 in cell 99 at location (10 -0.45 0.05)
    max(p) = 1.7445089 in cell 0 at location (0.05 -0.45 0.05)

surfaceFieldValue inMassFlow write:
    sum(inlet) of phi = -0.1

surfaceFieldValue outMassFlow write:
    sum(outlet) of phi = 0.1

surfaceFieldValue inPre write:
    weightedAverage(inlet) of phi = -0.01
    weightedAverage(inlet) of U = (1 0 0)
    weightedAverage(inlet) of p = 1.6039873

surfaceFieldValue outMax write:
    max(outlet) of U = (1.3749602 4.7970551e-06 0)
    max(outlet) of p = 0

Time = 2.35

Courant Number mean: 0.50255943 max: 0.68747843
DILUPBiCG:  Solving for Ux, Initial residual = 0.0024908593, Final residual = 6.2366611e-09, No Iterations 3
DILUPBiCG:  Solving for Uy, Initial residual = 0.002773887, Final residual = 6.1961641e-09, No Iterations 3
GAMG:  Solving for p, Initial residual = 0.00010865913, Final residual = 2.796732e-07, No Iterations 3
time step continuity errors : sum local = 1.4767639e-09, global = 1.5041927e-10, cumulative = 3.3029766e-08
ExecutionTime = 0.47 s  ClockTime = 0 s

fieldMinMax minmaxdomain write:
    min(U) = (0.91890843 0.035821659 0) in cell 0 at location (0.05 -0.45 0.05)
    max(U) = (0.91890843 0.035821659 0) in cell 0 at location (0.05 -0.45 0.05)
    min(p) = 0 in cell 99 at location (10 -0.45 0.05)
    max(p) = 1.7406864 in cell 0 at location (0.05 -0.45 0.05)

surfaceFieldValue inMassFlow write:
    sum(inlet) of phi = -0.1

surfaceFieldValue outMassFlow write:
    sum(outlet) of phi = 0.1

surfaceFieldValue inPre write:
    weightedAverage(inlet) of phi = -0.01
    weightedAverage(inlet) of U = (1 0 0)
    weightedAverage(inlet) of p = 1.6001743

surfaceFieldValue outMax write:
    max(outlet) of U = (1.3782837 4.659249e-06 0)
    max(outlet) of p = 0

Time = 2.4

Courant Number mean: 0.50257349 max: 0.68914027
DILUPBiCG:  Solving for Ux, Initial residual = 0.0023756054, Final residual = 5.8216238e-09, No Iterations 3
DILUPBiCG:  Solving for Uy, Initial residual = 0.0026528395, Final residual = 5.9413512e-09, No Iterations 3
GAMG:  Solving for p, Initial residual = 0.00010353384, Final residual = 2.5975548e-07, No Iterations 3
time step continuity errors : sum local = 1.3666028e-09, global = 1.4204111e-10, cumulative = 3.3171807e-08
ExecutionTime = 0.48 s  ClockTime = 0 s

fieldMinMax minmaxdomain write:
    min(U) = (0.91890837 0.035821693 0) in cell 0 at location (0.05 -0.45 0.05)
    max(U) = (0.91890837 0.035821693 0) in cell 0 at location (0.05 -0.45 0.05)
    min(p) = 0 in cell 99 at location (10 -0.45 0.05)
    max(p) = 1.7370876 in cell 0 at location (0.05 -0.45 0.05)

surfaceFieldValue inMassFlow write:
    sum(inlet) of phi = -0.1

surfaceFieldValue outMassFlow write:
    sum(outlet) of phi = 0.1

surfaceFieldValue inPre write:
    weightedAverage(inlet) of phi = -0.01
    weightedAverage(inlet) of U = (1 0 0)
    weightedAverage(inlet) of p = 1.5965844

surfaceFieldValue outMax write:
    max(outlet) of U = (1.3814968 4.5139462e-06 0)
    max(outlet) of p = 0

Time = 2.45

Courant Number mean: 0.50258701 max: 0.69074687
DILUPBiCG:  Solving for Ux, Initial residual = 0.0022661587, Final residual = 5.4482949e-09, No Iterations 3
DILUPBiCG:  Solving for Uy, Initial residual = 0.0025381419, Final residual = 5.6967932e-09, No Iterations 3
GAMG:  Solving for p, Initial residual = 9.8488223e-05, Final residual = 2.4248621e-07, No Iterations 3
time step continuity errors : sum local = 1.2713314e-09, global = 1.3432107e-10, cumulative = 3.3306128e-08
ExecutionTime = 0.48 s  ClockTime = 0 s

fieldMinMax minmaxdomain write:
    min(U) = (0.91890834 0.035821729 0) in cell 0 at location (0.05 -0.45 0.05)
    max(U) = (0.91890834 0.035821729 0) in cell 0 at location (0.05 -0.45 0.05)
    min(p) = 0 in cell 99 at location (10 -0.45 0.05)
    max(p) = 1.7336974 in cell 0 at location (0.05 -0.45 0.05)

surfaceFieldValue inMassFlow write:
    sum(inlet) of phi = -0.1

surfaceFieldValue outMassFlow write:
    sum(outlet) of phi = 0.1

surfaceFieldValue inPre write:
    weightedAverage(inlet) of phi = -0.01
    weightedAverage(inlet) of U = (1 0 0)
    weightedAverage(inlet) of p = 1.5932027

surfaceFieldValue outMax write:
    max(outlet) of U = (1.3846027 4.3645489e-06 0)
    max(outlet) of p = 0

Time = 2.5

Courant Number mean: 0.50260002 max: 0.69229989
DILUPBiCG:  Solving for Ux, Initial residual = 0.0021621382, Final residual = 5.1099072e-09, No Iterations 3
DILUPBiCG:  Solving for Uy, Initial residual = 0.0024293493, Final residual = 5.4602632e-09, No Iterations 3
GAMG:  Solving for p, Initial residual = 9.4305404e-05, Final residual = 2.2537314e-07, No Iterations 3
time step continuity errors : sum local = 1.1777163e-09, global = 1.2716113e-10, cumulative = 3.3433289e-08
ExecutionTime = 0.48 s  ClockTime = 0 s

fieldMinMax minmaxdomain write:
    min(U) = (0.91890832 0.035821766 0) in cell 0 at location (0.05 -0.45 0.05)
    max(U) = (0.91890832 0.035821766 0) in cell 0 at location (0.05 -0.45 0.05)
    min(p) = 0 in cell 99 at location (10 -0.45 0.05)
    max(p) = 1.7305021 in cell 0 at location (0.05 -0.45 0.05)

surfaceFieldValue inMassFlow write:
    sum(inlet) of phi = -0.1

surfaceFieldValue outMassFlow write:
    sum(outlet) of phi = 0.1

surfaceFieldValue inPre write:
    weightedAverage(inlet) of phi = -0.01
    weightedAverage(inlet) of U = (1 0 0)
    weightedAverage(inlet) of p = 1.5900155

surfaceFieldValue outMax write:
    max(outlet) of U = (1.3876046 4.2135345e-06 0)
    max(outlet) of p = 0

Time = 2.55

Courant Number mean: 0.50261254 max: 0.69380092
DILUPBiCG:  Solving for Ux, Initial residual = 0.0020632271, Final residual = 4.8012011e-09, No Iterations 3
DILUPBiCG:  Solving for Uy, Initial residual = 0.0023260565, Final residual = 5.2384387e-09, No Iterations 3
GAMG:  Solving for p, Initial residual = 9.0125553e-05, Final residual = 2.1063062e-07, No Iterations 3
time step continuity errors : sum local = 1.0972245e-09, global = 1.2053562e-10, cumulative = 3.3553825e-08
ExecutionTime = 0.48 s  ClockTime = 0 s

fieldMinMax minmaxdomain write:
    min(U) = (0.91890832 0.035821799 0) in cell 0 at location (0.05 -0.45 0.05)
    max(U) = (0.91890832 0.035821799 0) in cell 0 at location (0.05 -0.45 0.05)
    min(p) = 0 in cell 99 at location (10 -0.45 0.05)
    max(p) = 1.727489 in cell 0 at location (0.05 -0.45 0.05)

surfaceFieldValue inMassFlow write:
    sum(inlet) of phi = -0.1

surfaceFieldValue outMassFlow write:
    sum(outlet) of phi = 0.1

surfaceFieldValue inPre write:
    weightedAverage(inlet) of phi = -0.01
    weightedAverage(inlet) of U = (1 0 0)
    weightedAverage(inlet) of p = 1.5870101

surfaceFieldValue outMax write:
    max(outlet) of U = (1.3905057 4.0627107e-06 0)
    max(outlet) of p = 0

Time = 2.6

Courant Number mean: 0.50262458 max: 0.69525155
DILUPBiCG:  Solving for Ux, Initial residual = 0.0019691357, Final residual = 4.5180886e-09, No Iterations 3
DILUPBiCG:  Solving for Uy, Initial residual = 0.0022279282, Final residual = 5.0242682e-09, No Iterations 3
GAMG:  Solving for p, Initial residual = 8.6331253e-05, Final residual = 1.9631861e-07, No Iterations 3
time step continuity errors : sum local = 1.0196145e-09, global = 1.143474e-10, cumulative = 3.3668172e-08
ExecutionTime = 0.48 s  ClockTime = 0 s

fieldMinMax minmaxdomain write:
    min(U) = (0.91890833 0.035821828 0) in cell 0 at location (0.05 -0.45 0.05)
    max(U) = (0.91890833 0.035821828 0) in cell 0 at location (0.05 -0.45 0.05)
    min(p) = 0 in cell 99 at location (10 -0.45 0.05)
    max(p) = 1.7246463 in cell 0 at location (0.05 -0.45 0.05)

surfaceFieldValue inMassFlow write:
    sum(inlet) of phi = -0.1

surfaceFieldValue outMassFlow write:
    sum(outlet) of phi = 0.1

surfaceFieldValue inPre write:
    weightedAverage(inlet) of phi = -0.01
    weightedAverage(inlet) of U = (1 0 0)
    weightedAverage(inlet) of p = 1.5841747

surfaceFieldValue outMax write:
    max(outlet) of U = (1.3933091 3.9133998e-06 0)
    max(outlet) of p = 0

Time = 2.65

Courant Number mean: 0.50263616 max: 0.6966533
DILUPBiCG:  Solving for Ux, Initial residual = 0.0018795952, Final residual = 4.2573263e-09, No Iterations 3
DILUPBiCG:  Solving for Uy, Initial residual = 0.0021346324, Final residual = 4.8209313e-09, No Iterations 3
GAMG:  Solving for p, Initial residual = 8.2507613e-05, Final residual = 1.8312575e-07, No Iterations 3
time step continuity errors : sum local = 9.4838832e-10, global = 1.085967e-10, cumulative = 3.3776769e-08
ExecutionTime = 0.5 s  ClockTime = 0 s

fieldMinMax minmaxdomain write:
    min(U) = (0.91890834 0.035821852 0) in cell 0 at location (0.05 -0.45 0.05)
    max(U) = (0.91890834 0.035821852 0) in cell 0 at location (0.05 -0.45 0.05)
    min(p) = 0 in cell 99 at location (10 -0.45 0.05)
    max(p) = 1.7219634 in cell 0 at location (0.05 -0.45 0.05)

surfaceFieldValue inMassFlow write:
    sum(inlet) of phi = -0.1

surfaceFieldValue outMassFlow write:
    sum(outlet) of phi = 0.1

surfaceFieldValue inPre write:
    weightedAverage(inlet) of phi = -0.01
    weightedAverage(inlet) of U = (1 0 0)
    weightedAverage(inlet) of p = 1.5814987

surfaceFieldValue outMax write:
    max(outlet) of U = (1.3960177 3.7665693e-06 0)
    max(outlet) of p = 0

Time = 2.7

Courant Number mean: 0.50264731 max: 0.69800768
DILUPBiCG:  Solving for Ux, Initial residual = 0.0017943547, Final residual = 4.0168608e-09, No Iterations 3
DILUPBiCG:  Solving for Uy, Initial residual = 0.0020458719, Final residual = 4.6295199e-09, No Iterations 3
GAMG:  Solving for p, Initial residual = 7.9044027e-05, Final residual = 1.7158616e-07, No Iterations 3
time step continuity errors : sum local = 8.8621641e-10, global = 1.0327239e-10, cumulative = 3.3880041e-08
ExecutionTime = 0.5 s  ClockTime = 0 s

fieldMinMax minmaxdomain write:
    min(U) = (0.91890836 0.035821872 0) in cell 0 at location (0.05 -0.45 0.05)
    max(U) = (0.91890836 0.035821872 0) in cell 0 at location (0.05 -0.45 0.05)
    min(p) = 0 in cell 99 at location (10 -0.45 0.05)
    max(p) = 1.7194301 in cell 0 at location (0.05 -0.45 0.05)

surfaceFieldValue inMassFlow write:
    sum(inlet) of phi = -0.1

surfaceFieldValue outMassFlow write:
    sum(outlet) of phi = 0.1

surfaceFieldValue inPre write:
    weightedAverage(inlet) of phi = -0.01
    weightedAverage(inlet) of U = (1 0 0)
    weightedAverage(inlet) of p = 1.578972

surfaceFieldValue outMax write:
    max(outlet) of U = (1.3986346 3.6229347e-06 0)
    max(outlet) of p = 0

Time = 2.75

Courant Number mean: 0.50265804 max: 0.69931615
DILUPBiCG:  Solving for Ux, Initial residual = 0.0017131809, Final residual = 3.7939681e-09, No Iterations 3
DILUPBiCG:  Solving for Uy, Initial residual = 0.0019613584, Final residual = 4.4424585e-09, No Iterations 3
GAMG:  Solving for p, Initial residual = 7.5569789e-05, Final residual = 1.6063438e-07, No Iterations 3
time step continuity errors : sum local = 8.2750817e-10, global = 9.8293501e-11, cumulative = 3.3978335e-08
ExecutionTime = 0.5 s  ClockTime = 0 s

fieldMinMax minmaxdomain write:
    min(U) = (0.91890837 0.035821887 0) in cell 0 at location (0.05 -0.45 0.05)
    max(U) = (0.91890837 0.035821887 0) in cell 0 at location (0.05 -0.45 0.05)
    min(p) = 0 in cell 99 at location (10 -0.45 0.05)
    max(p) = 1.7170373 in cell 0 at location (0.05 -0.45 0.05)

surfaceFieldValue inMassFlow write:
    sum(inlet) of phi = -0.1

surfaceFieldValue outMassFlow write:
    sum(outlet) of phi = 0.1

surfaceFieldValue inPre write:
    weightedAverage(inlet) of phi = -0.01
    weightedAverage(inlet) of U = (1 0 0)
    weightedAverage(inlet) of p = 1.5765853

surfaceFieldValue outMax write:
    max(outlet) of U = (1.4011625 3.4830219e-06 0)
    max(outlet) of p = 0

Time = 2.8

Courant Number mean: 0.50266837 max: 0.70058014
DILUPBiCG:  Solving for Ux, Initial residual = 0.0016358559, Final residual = 3.586965e-09, No Iterations 3
DILUPBiCG:  Solving for Uy, Initial residual = 0.0018808449, Final residual = 4.2692388e-09, No Iterations 3
GAMG:  Solving for p, Initial residual = 7.247624e-05, Final residual = 9.7871554e-07, No Iterations 2
time step continuity errors : sum local = 5.0294355e-09, global = 2.6818737e-10, cumulative = 3.4246522e-08
ExecutionTime = 0.5 s  ClockTime = 0 s

fieldMinMax minmaxdomain write:
    min(U) = (0.91890837 0.035821902 0) in cell 0 at location (0.05 -0.45 0.05)
    max(U) = (0.91890837 0.035821902 0) in cell 0 at location (0.05 -0.45 0.05)
    min(p) = 0 in cell 99 at location (10 -0.45 0.05)
    max(p) = 1.7147887 in cell 0 at location (0.05 -0.45 0.05)

surfaceFieldValue inMassFlow write:
    sum(inlet) of phi = -0.1

surfaceFieldValue outMassFlow write:
    sum(outlet) of phi = 0.10000001

surfaceFieldValue inPre write:
    weightedAverage(inlet) of phi = -0.01
    weightedAverage(inlet) of U = (1 0 0)
    weightedAverage(inlet) of p = 1.5743424

surfaceFieldValue outMax write:
    max(outlet) of U = (1.4036042 3.3468107e-06 0)
    max(outlet) of p = 0

Time = 2.85

Courant Number mean: 0.50267834 max: 0.70180107
DILUPBiCG:  Solving for Ux, Initial residual = 0.0015621536, Final residual = 3.3937516e-09, No Iterations 3
DILUPBiCG:  Solving for Uy, Initial residual = 0.0018040164, Final residual = 4.1006592e-09, No Iterations 3
GAMG:  Solving for p, Initial residual = 6.975813e-05, Final residual = 9.6135411e-07, No Iterations 2
time step continuity errors : sum local = 4.9286809e-09, global = 2.3964482e-10, cumulative = 3.4486167e-08
ExecutionTime = 0.5 s  ClockTime = 0 s

fieldMinMax minmaxdomain write:
    min(U) = (0.91890838 0.035821908 0) in cell 0 at location (0.05 -0.45 0.05)
    max(U) = (0.91890838 0.035821908 0) in cell 0 at location (0.05 -0.45 0.05)
    min(p) = 0 in cell 99 at location (10 -0.45 0.05)
    max(p) = 1.7126368 in cell 0 at location (0.05 -0.45 0.05)

surfaceFieldValue inMassFlow write:
    sum(inlet) of phi = -0.1

surfaceFieldValue outMassFlow write:
    sum(outlet) of phi = 0.1

surfaceFieldValue inPre write:
    weightedAverage(inlet) of phi = -0.01
    weightedAverage(inlet) of U = (1 0 0)
    weightedAverage(inlet) of p = 1.5721963

surfaceFieldValue outMax write:
    max(outlet) of U = (1.4059625 3.2162657e-06 0)
    max(outlet) of p = 0

Time = 2.9

Courant Number mean: 0.50268791 max: 0.70298027
DILUPBiCG:  Solving for Ux, Initial residual = 0.0014919529, Final residual = 3.2150279e-09, No Iterations 3
DILUPBiCG:  Solving for Uy, Initial residual = 0.0017308659, Final residual = 3.9400109e-09, No Iterations 3
GAMG:  Solving for p, Initial residual = 6.6859772e-05, Final residual = 8.9791416e-07, No Iterations 2
time step continuity errors : sum local = 4.5930607e-09, global = 2.243677e-10, cumulative = 3.4710534e-08
ExecutionTime = 0.52 s  ClockTime = 0 s

fieldMinMax minmaxdomain write:
    min(U) = (0.91890839 0.035821913 0) in cell 0 at location (0.05 -0.45 0.05)
    max(U) = (0.91890839 0.035821913 0) in cell 0 at location (0.05 -0.45 0.05)
    min(p) = 0 in cell 99 at location (10 -0.45 0.05)
    max(p) = 1.7106188 in cell 0 at location (0.05 -0.45 0.05)

surfaceFieldValue inMassFlow write:
    sum(inlet) of phi = -0.1

surfaceFieldValue outMassFlow write:
    sum(outlet) of phi = 0.1

surfaceFieldValue inPre write:
    weightedAverage(inlet) of phi = -0.01
    weightedAverage(inlet) of U = (1 0 0)
    weightedAverage(inlet) of p = 1.5701836

surfaceFieldValue outMax write:
    max(outlet) of U = (1.40824 3.0898615e-06 0)
    max(outlet) of p = 0

Time = 2.95

Courant Number mean: 0.50269712 max: 0.70411908
DILUPBiCG:  Solving for Ux, Initial residual = 0.0014249952, Final residual = 3.0471586e-09, No Iterations 3
DILUPBiCG:  Solving for Uy, Initial residual = 0.0016609915, Final residual = 3.7874002e-09, No Iterations 3
GAMG:  Solving for p, Initial residual = 6.4013653e-05, Final residual = 8.4803822e-07, No Iterations 2
time step continuity errors : sum local = 4.3286848e-09, global = 2.1702723e-10, cumulative = 3.4927562e-08
ExecutionTime = 0.52 s  ClockTime = 0 s

fieldMinMax minmaxdomain write:
    min(U) = (0.9189084 0.035821916 0) in cell 0 at location (0.05 -0.45 0.05)
    max(U) = (0.9189084 0.035821916 0) in cell 0 at location (0.05 -0.45 0.05)
    min(p) = 0 in cell 99 at location (10 -0.45 0.05)
    max(p) = 1.7087075 in cell 0 at location (0.05 -0.45 0.05)

surfaceFieldValue inMassFlow write:
    sum(inlet) of phi = -0.1

surfaceFieldValue outMassFlow write:
    sum(outlet) of phi = 0.1

surfaceFieldValue inPre write:
    weightedAverage(inlet) of phi = -0.01
    weightedAverage(inlet) of U = (1 0 0)
    weightedAverage(inlet) of p = 1.5682773

surfaceFieldValue outMax write:
    max(outlet) of U = (1.4104394 2.9686051e-06 0)
    max(outlet) of p = 0

Time = 3

Courant Number mean: 0.502706 max: 0.70521878
DILUPBiCG:  Solving for Ux, Initial residual = 0.0013611487, Final residual = 2.8906009e-09, No Iterations 3
DILUPBiCG:  Solving for Uy, Initial residual = 0.0015942742, Final residual = 3.6404696e-09, No Iterations 3
GAMG:  Solving for p, Initial residual = 6.14972e-05, Final residual = 8.0631286e-07, No Iterations 2
time step continuity errors : sum local = 4.107324e-09, global = 2.0551618e-10, cumulative = 3.5133078e-08
ExecutionTime = 0.53 s  ClockTime = 0 s

fieldMinMax minmaxdomain write:
    min(U) = (0.9189084 0.035821918 0) in cell 0 at location (0.05 -0.45 0.05)
    max(U) = (0.9189084 0.035821918 0) in cell 0 at location (0.05 -0.45 0.05)
    min(p) = 0 in cell 99 at location (10 -0.45 0.05)
    max(p) = 1.7068998 in cell 0 at location (0.05 -0.45 0.05)

surfaceFieldValue inMassFlow write:
    sum(inlet) of phi = -0.1

surfaceFieldValue outMassFlow write:
    sum(outlet) of phi = 0.1

surfaceFieldValue inPre write:
    weightedAverage(inlet) of phi = -0.01
    weightedAverage(inlet) of U = (1 0 0)
    weightedAverage(inlet) of p = 1.5664744

surfaceFieldValue outMax write:
    max(outlet) of U = (1.412563 2.8533102e-06 0)
    max(outlet) of p = 0

Time = 3.05

Courant Number mean: 0.50271454 max: 0.70628064
DILUPBiCG:  Solving for Ux, Initial residual = 0.00130025, Final residual = 2.7442015e-09, No Iterations 3
DILUPBiCG:  Solving for Uy, Initial residual = 0.0015305466, Final residual = 3.5000247e-09, No Iterations 3
GAMG:  Solving for p, Initial residual = 5.895859e-05, Final residual = 7.6483082e-07, No Iterations 2
time step continuity errors : sum local = 3.8884531e-09, global = 1.945292e-10, cumulative = 3.5327607e-08
ExecutionTime = 0.53 s  ClockTime = 0 s

fieldMinMax minmaxdomain write:
    min(U) = (0.9189084 0.035821918 0) in cell 0 at location (0.05 -0.45 0.05)
    max(U) = (0.9189084 0.035821918 0) in cell 0 at location (0.05 -0.45 0.05)
    min(p) = 0 in cell 99 at location (10 -0.45 0.05)
    max(p) = 1.7051893 in cell 0 at location (0.05 -0.45 0.05)

surfaceFieldValue inMassFlow write:
    sum(inlet) of phi = -0.1

surfaceFieldValue outMassFlow write:
    sum(outlet) of phi = 0.1

surfaceFieldValue inPre write:
    weightedAverage(inlet) of phi = -0.01
    weightedAverage(inlet) of U = (1 0 0)
    weightedAverage(inlet) of p = 1.5647685

surfaceFieldValue outMax write:
    max(outlet) of U = (1.4146134 2.7434314e-06 0)
    max(outlet) of p = 0

Time = 3.1

Courant Number mean: 0.50272277 max: 0.70730587
DILUPBiCG:  Solving for Ux, Initial residual = 0.0012421516, Final residual = 2.6067988e-09, No Iterations 3
DILUPBiCG:  Solving for Uy, Initial residual = 0.0014696417, Final residual = 3.365195e-09, No Iterations 3
GAMG:  Solving for p, Initial residual = 5.6665507e-05, Final residual = 7.260202e-07, No Iterations 2
time step continuity errors : sum local = 3.6843026e-09, global = 1.8445911e-10, cumulative = 3.5512066e-08
ExecutionTime = 0.53 s  ClockTime = 0 s

fieldMinMax minmaxdomain write:
    min(U) = (0.9189084 0.035821918 0) in cell 0 at location (0.05 -0.45 0.05)
    max(U) = (0.9189084 0.035821918 0) in cell 0 at location (0.05 -0.45 0.05)
    min(p) = 0 in cell 99 at location (10 -0.45 0.05)
    max(p) = 1.7035705 in cell 0 at location (0.05 -0.45 0.05)

surfaceFieldValue inMassFlow write:
    sum(inlet) of phi = -0.1

surfaceFieldValue outMassFlow write:
    sum(outlet) of phi = 0.1

surfaceFieldValue inPre write:
    weightedAverage(inlet) of phi = -0.01
    weightedAverage(inlet) of U = (1 0 0)
    weightedAverage(inlet) of p = 1.5631539

surfaceFieldValue outMax write:
    max(outlet) of U = (1.4165929 2.6385371e-06 0)
    max(outlet) of p = 0

Time = 3.15

Courant Number mean: 0.50273069 max: 0.70829568
DILUPBiCG:  Solving for Ux, Initial residual = 0.0011867137, Final residual = 2.47779e-09, No Iterations 3
DILUPBiCG:  Solving for Uy, Initial residual = 0.001411412, Final residual = 3.2376285e-09, No Iterations 3
GAMG:  Solving for p, Initial residual = 5.4338602e-05, Final residual = 6.9087177e-07, No Iterations 2
time step continuity errors : sum local = 3.4997443e-09, global = 1.7525736e-10, cumulative = 3.5687324e-08
ExecutionTime = 0.54 s  ClockTime = 0 s

fieldMinMax minmaxdomain write:
    min(U) = (0.9189084 0.035821918 0) in cell 0 at location (0.05 -0.45 0.05)
    max(U) = (0.9189084 0.035821918 0) in cell 0 at location (0.05 -0.45 0.05)
    min(p) = 0 in cell 99 at location (10 -0.45 0.05)
    max(p) = 1.7020381 in cell 0 at location (0.05 -0.45 0.05)

surfaceFieldValue inMassFlow write:
    sum(inlet) of phi = -0.1

surfaceFieldValue outMassFlow write:
    sum(outlet) of phi = 0.1

surfaceFieldValue inPre write:
    weightedAverage(inlet) of phi = -0.01
    weightedAverage(inlet) of U = (1 0 0)
    weightedAverage(inlet) of p = 1.5616256

surfaceFieldValue outMax write:
    max(outlet) of U = (1.418504 2.5382411e-06 0)
[...]

Courant Number mean: 0.50293959 max: 0.73507841
DILUPBiCG:  Solving for Ux, Initial residual = 9.211002e-09, Final residual = 9.211002e-09, No Iterations 0
DILUPBiCG:  Solving for Uy, Initial residual = 8.6710946e-09, Final residual = 8.6710946e-09, No Iterations 0
GAMG:  Solving for p, Initial residual = 9.4969099e-07, Final residual = 9.4969099e-07, No Iterations 0
time step continuity errors : sum local = 4.6484117e-09, global = -5.3901867e-11, cumulative = 4.4609511e-08
ExecutionTime = 1.65 s  ClockTime = 1 s

fieldMinMax minmaxdomain write:
    min(U) = (0.91890839 0.035821912 0) in cell 0 at location (0.05 -0.45 0.05)
    max(U) = (0.91890839 0.035821912 0) in cell 0 at location (0.05 -0.45 0.05)
    min(p) = 0 in cell 99 at location (10 -0.45 0.05)
    max(p) = 1.6755988 in cell 900 at location (0.05 0.45 0.05)

surfaceFieldValue inMassFlow write:
    sum(inlet) of phi = -0.1

surfaceFieldValue outMassFlow write:
    sum(outlet) of phi = 0.099999999

surfaceFieldValue inPre write:
    weightedAverage(inlet) of phi = -0.01
    weightedAverage(inlet) of U = (1 0 0)
    weightedAverage(inlet) of p = 1.5352582

surfaceFieldValue outMax write:
    max(outlet) of U = (1.4701556 4.2957571e-05 0)
    max(outlet) of p = 0

Time = 19.3

Courant Number mean: 0.50293959 max: 0.73507841
DILUPBiCG:  Solving for Ux, Initial residual = 1.5075944e-08, Final residual = 6.8612995e-10, No Iterations 1
DILUPBiCG:  Solving for Uy, Initial residual = 8.9571013e-09, Final residual = 8.9571013e-09, No Iterations 0
GAMG:  Solving for p, Initial residual = 8.467543e-07, Final residual = 8.467543e-07, No Iterations 0
time step continuity errors : sum local = 4.1445717e-09, global = -3.2528143e-11, cumulative = 4.4576983e-08
ExecutionTime = 1.65 s  ClockTime = 1 s

fieldMinMax minmaxdomain write:
    min(U) = (0.91890839 0.035821912 0) in cell 0 at location (0.05 -0.45 0.05)
    max(U) = (0.91890839 0.035821912 0) in cell 0 at location (0.05 -0.45 0.05)
    min(p) = 0 in cell 99 at location (10 -0.45 0.05)
    max(p) = 1.6755988 in cell 900 at location (0.05 0.45 0.05)

surfaceFieldValue inMassFlow write:
    sum(inlet) of phi = -0.1

surfaceFieldValue outMassFlow write:
    sum(outlet) of phi = 0.099999999

surfaceFieldValue inPre write:
    weightedAverage(inlet) of phi = -0.01
    weightedAverage(inlet) of U = (1 0 0)
    weightedAverage(inlet) of p = 1.5352582

surfaceFieldValue outMax write:
    max(outlet) of U = (1.4701556 4.2957357e-05 0)
    max(outlet) of p = 0

Time = 19.35

Courant Number mean: 0.50293959 max: 0.73507842
DILUPBiCG:  Solving for Ux, Initial residual = 1.3615765e-08, Final residual = 2.3990765e-10, No Iterations 1
DILUPBiCG:  Solving for Uy, Initial residual = 9.6001608e-09, Final residual = 9.6001608e-09, No Iterations 0
GAMG:  Solving for p, Initial residual = 7.755256e-07, Final residual = 7.755256e-07, No Iterations 0
time step continuity errors : sum local = 3.7959318e-09, global = 6.0496693e-12, cumulative = 4.4583032e-08
ExecutionTime = 1.65 s  ClockTime = 1 s

fieldMinMax minmaxdomain write:
    min(U) = (0.91890839 0.035821912 0) in cell 0 at location (0.05 -0.45 0.05)
    max(U) = (0.91890839 0.035821912 0) in cell 0 at location (0.05 -0.45 0.05)
    min(p) = 0 in cell 99 at location (10 -0.45 0.05)
    max(p) = 1.6755988 in cell 900 at location (0.05 0.45 0.05)

surfaceFieldValue inMassFlow write:
    sum(inlet) of phi = -0.1

surfaceFieldValue outMassFlow write:
    sum(outlet) of phi = 0.1

surfaceFieldValue inPre write:
    weightedAverage(inlet) of phi = -0.01
    weightedAverage(inlet) of U = (1 0 0)
    weightedAverage(inlet) of p = 1.5352582

surfaceFieldValue outMax write:
    max(outlet) of U = (1.4701557 4.2957044e-05 0)
    max(outlet) of p = 0

Time = 19.4

Courant Number mean: 0.50293959 max: 0.73507843
DILUPBiCG:  Solving for Ux, Initial residual = 1.2094865e-08, Final residual = 1.8346751e-09, No Iterations 1
DILUPBiCG:  Solving for Uy, Initial residual = 1.0338033e-08, Final residual = 1.6454796e-10, No Iterations 1
GAMG:  Solving for p, Initial residual = 8.2130802e-07, Final residual = 8.2130802e-07, No Iterations 0
time step continuity errors : sum local = 4.0200209e-09, global = 1.2861923e-11, cumulative = 4.4595894e-08
ExecutionTime = 1.65 s  ClockTime = 1 s

fieldMinMax minmaxdomain write:
    min(U) = (0.91890839 0.035821912 0) in cell 0 at location (0.05 -0.45 0.05)
    max(U) = (0.91890839 0.035821912 0) in cell 0 at location (0.05 -0.45 0.05)
    min(p) = 0 in cell 99 at location (10 -0.45 0.05)
    max(p) = 1.6755988 in cell 900 at location (0.05 0.45 0.05)

surfaceFieldValue inMassFlow write:
    sum(inlet) of phi = -0.1

surfaceFieldValue outMassFlow write:
    sum(outlet) of phi = 0.1

surfaceFieldValue inPre write:
    weightedAverage(inlet) of phi = -0.01
    weightedAverage(inlet) of U = (1 0 0)
    weightedAverage(inlet) of p = 1.5352582

surfaceFieldValue outMax write:
    max(outlet) of U = (1.4701557 4.2956973e-05 0)
    max(outlet) of p = 0

Time = 19.45

Courant Number mean: 0.50293959 max: 0.73507843
DILUPBiCG:  Solving for Ux, Initial residual = 1.1889624e-08, Final residual = 3.3152919e-10, No Iterations 1
DILUPBiCG:  Solving for Uy, Initial residual = 7.7541769e-09, Final residual = 7.7541769e-09, No Iterations 0
GAMG:  Solving for p, Initial residual = 8.2433139e-07, Final residual = 8.2433139e-07, No Iterations 0
time step continuity errors : sum local = 4.0348194e-09, global = -2.0228411e-11, cumulative = 4.4575666e-08
ExecutionTime = 1.65 s  ClockTime = 1 s

fieldMinMax minmaxdomain write:
    min(U) = (0.91890839 0.035821912 0) in cell 0 at location (0.05 -0.45 0.05)
    max(U) = (0.91890839 0.035821912 0) in cell 0 at location (0.05 -0.45 0.05)
    min(p) = 0 in cell 99 at location (10 -0.45 0.05)
    max(p) = 1.6755988 in cell 900 at location (0.05 0.45 0.05)

surfaceFieldValue inMassFlow write:
    sum(inlet) of phi = -0.1

surfaceFieldValue outMassFlow write:
    sum(outlet) of phi = 0.1

surfaceFieldValue inPre write:
    weightedAverage(inlet) of phi = -0.01
    weightedAverage(inlet) of U = (1 0 0)
    weightedAverage(inlet) of p = 1.5352582

surfaceFieldValue outMax write:
    max(outlet) of U = (1.4701556 4.2956926e-05 0)
    max(outlet) of p = 0

Time = 19.5

Courant Number mean: 0.50293959 max: 0.73507841
DILUPBiCG:  Solving for Ux, Initial residual = 1.1617221e-08, Final residual = 2.0899304e-10, No Iterations 1
DILUPBiCG:  Solving for Uy, Initial residual = 8.5174219e-09, Final residual = 8.5174219e-09, No Iterations 0
GAMG:  Solving for p, Initial residual = 7.4556816e-07, Final residual = 7.4556816e-07, No Iterations 0
time step continuity errors : sum local = 3.6493003e-09, global = -4.8006858e-11, cumulative = 4.4527659e-08
ExecutionTime = 1.65 s  ClockTime = 1 s

fieldMinMax minmaxdomain write:
    min(U) = (0.91890839 0.035821912 0) in cell 0 at location (0.05 -0.45 0.05)
    max(U) = (0.91890839 0.035821912 0) in cell 0 at location (0.05 -0.45 0.05)
    min(p) = 0 in cell 99 at location (10 -0.45 0.05)
    max(p) = 1.6755988 in cell 900 at location (0.05 0.45 0.05)

surfaceFieldValue inMassFlow write:
    sum(inlet) of phi = -0.1

surfaceFieldValue outMassFlow write:
    sum(outlet) of phi = 0.099999999

surfaceFieldValue inPre write:
    weightedAverage(inlet) of phi = -0.01
    weightedAverage(inlet) of U = (1 0 0)
    weightedAverage(inlet) of p = 1.5352582

surfaceFieldValue outMax write:
    max(outlet) of U = (1.4701556 4.2957057e-05 0)
    max(outlet) of p = 0

Time = 19.55

Courant Number mean: 0.50293959 max: 0.73507841
DILUPBiCG:  Solving for Ux, Initial residual = 1.0801825e-08, Final residual = 7.0136193e-10, No Iterations 1
DILUPBiCG:  Solving for Uy, Initial residual = 9.0985044e-09, Final residual = 9.0985044e-09, No Iterations 0
GAMG:  Solving for p, Initial residual = 6.3560999e-07, Final residual = 6.3560999e-07, No Iterations 0
time step continuity errors : sum local = 3.1110926e-09, global = -3.6410274e-11, cumulative = 4.4491249e-08
ExecutionTime = 1.65 s  ClockTime = 1 s

fieldMinMax minmaxdomain write:
    min(U) = (0.91890839 0.035821912 0) in cell 0 at location (0.05 -0.45 0.05)
    max(U) = (0.91890839 0.035821912 0) in cell 0 at location (0.05 -0.45 0.05)
    min(p) = 0 in cell 99 at location (10 -0.45 0.05)
    max(p) = 1.6755988 in cell 900 at location (0.05 0.45 0.05)

surfaceFieldValue inMassFlow write:
    sum(inlet) of phi = -0.1

surfaceFieldValue outMassFlow write:
    sum(outlet) of phi = 0.099999999

surfaceFieldValue inPre write:
    weightedAverage(inlet) of phi = -0.01
    weightedAverage(inlet) of U = (1 0 0)
    weightedAverage(inlet) of p = 1.5352582

surfaceFieldValue outMax write:
    max(outlet) of U = (1.4701556 4.2957361e-05 0)
    max(outlet) of p = 0

Time = 19.6

Courant Number mean: 0.50293959 max: 0.73507842
DILUPBiCG:  Solving for Ux, Initial residual = 9.4048997e-09, Final residual = 9.4048997e-09, No Iterations 0
DILUPBiCG:  Solving for Uy, Initial residual = 9.2400439e-09, Final residual = 9.2400439e-09, No Iterations 0
GAMG:  Solving for p, Initial residual = 8.7329511e-07, Final residual = 8.7329511e-07, No Iterations 0
time step continuity errors : sum local = 4.2744801e-09, global = -1.5957939e-11, cumulative = 4.4475291e-08
ExecutionTime = 1.65 s  ClockTime = 1 s

fieldMinMax minmaxdomain write:
    min(U) = (0.91890839 0.035821912 0) in cell 0 at location (0.05 -0.45 0.05)
    max(U) = (0.91890839 0.035821912 0) in cell 0 at location (0.05 -0.45 0.05)
    min(p) = 0 in cell 99 at location (10 -0.45 0.05)
    max(p) = 1.6755988 in cell 900 at location (0.05 0.45 0.05)

surfaceFieldValue inMassFlow write:
    sum(inlet) of phi = -0.1

surfaceFieldValue outMassFlow write:
    sum(outlet) of phi = 0.1

surfaceFieldValue inPre write:
    weightedAverage(inlet) of phi = -0.01
    weightedAverage(inlet) of U = (1 0 0)
    weightedAverage(inlet) of p = 1.5352582

surfaceFieldValue outMax write:
    max(outlet) of U = (1.4701557 4.295776e-05 0)
    max(outlet) of p = 0

Time = 19.65

Courant Number mean: 0.50293959 max: 0.73507843
DILUPBiCG:  Solving for Ux, Initial residual = 1.3981409e-08, Final residual = 2.7796858e-10, No Iterations 1
DILUPBiCG:  Solving for Uy, Initial residual = 1.0201246e-08, Final residual = 8.3610142e-10, No Iterations 1
GAMG:  Solving for p, Initial residual = 8.82576e-07, Final residual = 8.82576e-07, No Iterations 0
time step continuity errors : sum local = 4.3199067e-09, global = 1.8105781e-11, cumulative = 4.4493397e-08
ExecutionTime = 1.65 s  ClockTime = 1 s

fieldMinMax minmaxdomain write:
    min(U) = (0.91890839 0.035821912 0) in cell 0 at location (0.05 -0.45 0.05)
    max(U) = (0.91890839 0.035821912 0) in cell 0 at location (0.05 -0.45 0.05)
    min(p) = 0 in cell 99 at location (10 -0.45 0.05)
    max(p) = 1.6755988 in cell 900 at location (0.05 0.45 0.05)

surfaceFieldValue inMassFlow write:
    sum(inlet) of phi = -0.1

surfaceFieldValue outMassFlow write:
    sum(outlet) of phi = 0.1

surfaceFieldValue inPre write:
    weightedAverage(inlet) of phi = -0.01
    weightedAverage(inlet) of U = (1 0 0)
    weightedAverage(inlet) of p = 1.5352582

surfaceFieldValue outMax write:
    max(outlet) of U = (1.4701557 4.295787e-05 0)
    max(outlet) of p = 0

Time = 19.7

Courant Number mean: 0.50293959 max: 0.73507843
DILUPBiCG:  Solving for Ux, Initial residual = 1.3568958e-08, Final residual = 6.7549957e-10, No Iterations 1
DILUPBiCG:  Solving for Uy, Initial residual = 7.6701299e-09, Final residual = 7.6701299e-09, No Iterations 0
GAMG:  Solving for p, Initial residual = 8.5341738e-07, Final residual = 8.5341738e-07, No Iterations 0
time step continuity errors : sum local = 4.1771852e-09, global = -7.2948349e-13, cumulative = 4.4492667e-08
ExecutionTime = 1.65 s  ClockTime = 1 s

fieldMinMax minmaxdomain write:
    min(U) = (0.91890839 0.035821912 0) in cell 0 at location (0.05 -0.45 0.05)
    max(U) = (0.91890839 0.035821912 0) in cell 0 at location (0.05 -0.45 0.05)
    min(p) = 0 in cell 99 at location (10 -0.45 0.05)
    max(p) = 1.6755988 in cell 900 at location (0.05 0.45 0.05)

surfaceFieldValue inMassFlow write:
    sum(inlet) of phi = -0.1

surfaceFieldValue outMassFlow write:
    sum(outlet) of phi = 0.1

surfaceFieldValue inPre write:
    weightedAverage(inlet) of phi = -0.01
    weightedAverage(inlet) of U = (1 0 0)
    weightedAverage(inlet) of p = 1.5352582

surfaceFieldValue outMax write:
    max(outlet) of U = (1.4701557 4.2957946e-05 0)
    max(outlet) of p = 0

Time = 19.75

Courant Number mean: 0.50293959 max: 0.73507842
DILUPBiCG:  Solving for Ux, Initial residual = 1.2039933e-08, Final residual = 2.2285511e-10, No Iterations 1
DILUPBiCG:  Solving for Uy, Initial residual = 8.0902846e-09, Final residual = 8.0902846e-09, No Iterations 0
GAMG:  Solving for p, Initial residual = 7.3876643e-07, Final residual = 7.3876643e-07, No Iterations 0
time step continuity errors : sum local = 3.6160083e-09, global = -3.862676e-11, cumulative = 4.445404e-08
ExecutionTime = 1.67 s  ClockTime = 1 s

fieldMinMax minmaxdomain write:
    min(U) = (0.91890839 0.035821912 0) in cell 0 at location (0.05 -0.45 0.05)
    max(U) = (0.91890839 0.035821912 0) in cell 0 at location (0.05 -0.45 0.05)
    min(p) = 0 in cell 99 at location (10 -0.45 0.05)
    max(p) = 1.6755988 in cell 900 at location (0.05 0.45 0.05)

surfaceFieldValue inMassFlow write:
    sum(inlet) of phi = -0.1

surfaceFieldValue outMassFlow write:
    sum(outlet) of phi = 0.099999999

surfaceFieldValue inPre write:
    weightedAverage(inlet) of phi = -0.01
    weightedAverage(inlet) of U = (1 0 0)
    weightedAverage(inlet) of p = 1.5352582

surfaceFieldValue outMax write:
    max(outlet) of U = (1.4701556 4.2957812e-05 0)
    max(outlet) of p = 0

Time = 19.8

Courant Number mean: 0.50293959 max: 0.73507841
DILUPBiCG:  Solving for Ux, Initial residual = 1.0712073e-08, Final residual = 6.3384825e-10, No Iterations 1
DILUPBiCG:  Solving for Uy, Initial residual = 8.8017614e-09, Final residual = 8.8017614e-09, No Iterations 0
GAMG:  Solving for p, Initial residual = 7.096375e-07, Final residual = 7.096375e-07, No Iterations 0
time step continuity errors : sum local = 3.4734319e-09, global = -4.8426271e-11, cumulative = 4.4405614e-08
ExecutionTime = 1.67 s  ClockTime = 1 s

fieldMinMax minmaxdomain write:
    min(U) = (0.91890839 0.035821912 0) in cell 0 at location (0.05 -0.45 0.05)
    max(U) = (0.91890839 0.035821912 0) in cell 0 at location (0.05 -0.45 0.05)
    min(p) = 0 in cell 99 at location (10 -0.45 0.05)
    max(p) = 1.6755988 in cell 900 at location (0.05 0.45 0.05)

surfaceFieldValue inMassFlow write:
    sum(inlet) of phi = -0.1

surfaceFieldValue outMassFlow write:
    sum(outlet) of phi = 0.099999999

surfaceFieldValue inPre write:
    weightedAverage(inlet) of phi = -0.01
    weightedAverage(inlet) of U = (1 0 0)
    weightedAverage(inlet) of p = 1.5352582

surfaceFieldValue outMax write:
    max(outlet) of U = (1.4701556 4.2957451e-05 0)
    max(outlet) of p = 0

Time = 19.85

Courant Number mean: 0.50293959 max: 0.73507841
DILUPBiCG:  Solving for Ux, Initial residual = 1.0204536e-08, Final residual = 3.0490093e-10, No Iterations 1
DILUPBiCG:  Solving for Uy, Initial residual = 9.0039086e-09, Final residual = 9.0039086e-09, No Iterations 0
GAMG:  Solving for p, Initial residual = 6.6929067e-07, Final residual = 6.6929067e-07, No Iterations 0
time step continuity errors : sum local = 3.2759481e-09, global = -2.228252e-11, cumulative = 4.4383332e-08
ExecutionTime = 1.67 s  ClockTime = 1 s

fieldMinMax minmaxdomain write:
    min(U) = (0.91890839 0.035821912 0) in cell 0 at location (0.05 -0.45 0.05)
    max(U) = (0.91890839 0.035821912 0) in cell 0 at location (0.05 -0.45 0.05)
    min(p) = 0 in cell 99 at location (10 -0.45 0.05)
    max(p) = 1.6755988 in cell 900 at location (0.05 0.45 0.05)

surfaceFieldValue inMassFlow write:
    sum(inlet) of phi = -0.1

surfaceFieldValue outMassFlow write:
    sum(outlet) of phi = 0.1

surfaceFieldValue inPre write:
    weightedAverage(inlet) of phi = -0.01
    weightedAverage(inlet) of U = (1 0 0)
    weightedAverage(inlet) of p = 1.5352582

surfaceFieldValue outMax write:
    max(outlet) of U = (1.4701556 4.2956922e-05 0)
    max(outlet) of p = 0

Time = 19.9

Courant Number mean: 0.50293959 max: 0.73507843
DILUPBiCG:  Solving for Ux, Initial residual = 9.8879875e-09, Final residual = 9.8879875e-09, No Iterations 0
DILUPBiCG:  Solving for Uy, Initial residual = 9.6553673e-09, Final residual = 9.6553673e-09, No Iterations 0
GAMG:  Solving for p, Initial residual = 8.9608776e-07, Final residual = 8.9608776e-07, No Iterations 0
time step continuity errors : sum local = 4.3860423e-09, global = 2.3021648e-12, cumulative = 4.4385634e-08
ExecutionTime = 1.67 s  ClockTime = 1 s

fieldMinMax minmaxdomain write:
    min(U) = (0.91890839 0.035821912 0) in cell 0 at location (0.05 -0.45 0.05)
    max(U) = (0.91890839 0.035821912 0) in cell 0 at location (0.05 -0.45 0.05)
    min(p) = 0 in cell 99 at location (10 -0.45 0.05)
    max(p) = 1.6755988 in cell 900 at location (0.05 0.45 0.05)

surfaceFieldValue inMassFlow write:
    sum(inlet) of phi = -0.1

surfaceFieldValue outMassFlow write:
    sum(outlet) of phi = 0.1

surfaceFieldValue inPre write:
    weightedAverage(inlet) of phi = -0.01
    weightedAverage(inlet) of U = (1 0 0)
    weightedAverage(inlet) of p = 1.5352582

surfaceFieldValue outMax write:
    max(outlet) of U = (1.4701557 4.2956357e-05 0)
    max(outlet) of p = 0

Time = 19.95

Courant Number mean: 0.50293959 max: 0.73507843
DILUPBiCG:  Solving for Ux, Initial residual = 1.4436783e-08, Final residual = 1.056249e-09, No Iterations 1
DILUPBiCG:  Solving for Uy, Initial residual = 1.0296563e-08, Final residual = 3.5969366e-10, No Iterations 1
GAMG:  Solving for p, Initial residual = 8.9247729e-07, Final residual = 8.9247729e-07, No Iterations 0
time step continuity errors : sum local = 4.3683701e-09, global = 1.2677275e-11, cumulative = 4.4398311e-08
ExecutionTime = 1.67 s  ClockTime = 1 s

fieldMinMax minmaxdomain write:
    min(U) = (0.91890839 0.035821912 0) in cell 0 at location (0.05 -0.45 0.05)
    max(U) = (0.91890839 0.035821912 0) in cell 0 at location (0.05 -0.45 0.05)
    min(p) = 0 in cell 99 at location (10 -0.45 0.05)
    max(p) = 1.6755988 in cell 900 at location (0.05 0.45 0.05)

surfaceFieldValue inMassFlow write:
    sum(inlet) of phi = -0.1

surfaceFieldValue outMassFlow write:
    sum(outlet) of phi = 0.1

surfaceFieldValue inPre write:
    weightedAverage(inlet) of phi = -0.01
    weightedAverage(inlet) of U = (1 0 0)
    weightedAverage(inlet) of p = 1.5352582

surfaceFieldValue outMax write:
    max(outlet) of U = (1.4701557 4.2956207e-05 0)
    max(outlet) of p = 0

Time = 20

Courant Number mean: 0.50293959 max: 0.73507843
DILUPBiCG:  Solving for Ux, Initial residual = 1.3108007e-08, Final residual = 3.5732655e-10, No Iterations 1
DILUPBiCG:  Solving for Uy, Initial residual = 7.8440972e-09, Final residual = 7.8440972e-09, No Iterations 0
GAMG:  Solving for p, Initial residual = 8.8005043e-07, Final residual = 8.8005043e-07, No Iterations 0
time step continuity errors : sum local = 4.3075451e-09, global = -2.0582678e-11, cumulative = 4.4377728e-08
ExecutionTime = 1.68 s  ClockTime = 2 s

fieldMinMax minmaxdomain write:
    min(U) = (0.91890839 0.035821912 0) in cell 0 at location (0.05 -0.45 0.05)
    max(U) = (0.91890839 0.035821912 0) in cell 0 at location (0.05 -0.45 0.05)
    min(p) = 0 in cell 99 at location (10 -0.45 0.05)
    max(p) = 1.6755988 in cell 900 at location (0.05 0.45 0.05)

surfaceFieldValue inMassFlow write:
    sum(inlet) of phi = -0.1

surfaceFieldValue outMassFlow write:
    sum(outlet) of phi = 0.1

surfaceFieldValue inPre write:
    weightedAverage(inlet) of phi = -0.01
    weightedAverage(inlet) of U = (1 0 0)
    weightedAverage(inlet) of p = 1.5352582

surfaceFieldValue outMax write:
    max(outlet) of U = (1.4701556 4.2956114e-05 0)
    max(outlet) of p = 0

End

