/*---------------------------------------------------------------------------*\
| =========                 |                                                 |
| \\      /  F ield         | OpenFOAM: The Open Source CFD Toolbox           |
|  \\    /   O peration     | Version:  v1812                                 |
|   \\  /    A nd           | Web:      www.OpenFOAM.com                      |
|    \\/     M anipulation  |                                                 |
\*---------------------------------------------------------------------------*/
Build  : v1812 OPENFOAM=1812
Arch   : "LSB;label=32;scalar=64"
Exec   : icoFoam
Date   : Jul 25 2022
Time   : 17:01:32
Host   : DESKTOP-2P6APRA
PID    : 22238
I/O    : uncollated
Case   : /home/pedro/OpenFoam/Day5/laminar_pipe/case1
nProcs : 1
trapFpe: Floating point exception trapping enabled (FOAM_SIGFPE).
fileModificationChecking : Monitoring run-time modified files using timeStampMaster (fileModificationSkew 10)
allowSystemOperations : Allowing user-supplied system call operations

// * * * * * * * * * * * * * * * * * * * * * * * * * * * * * * * * * * * * * //
Create time

Create mesh for time = 0


PISO: Operating solver in PISO mode

Reading transportProperties

Reading field p

Reading field U

Reading/calculating face flux field phi


Starting time loop

surfaceFieldValue inMassFlow:
    operation     = sum
    total faces   = 10
    total area    = 0.1


surfaceFieldValue outMassFlow:
    operation     = sum
    total faces   = 10
    total area    = 0.1


surfaceFieldValue inPre:
    operation     = weightedAverage
    total faces   = 10
    total area    = 0.1
    weight field  = p


surfaceFieldValue outMax:
    operation     = max
    total faces   = 10
    total area    = 0.1


Time = 0.05

Courant Number mean: 0 max: 0
DILUPBiCG:  Solving for Ux, Initial residual = 1, Final residual = 8.5279329e-09, No Iterations 3
DILUPBiCG:  Solving for Uy, Initial residual = 0, Final residual = 0, No Iterations 0
GAMG:  Solving for p, Initial residual = 1, Final residual = 0.0080553603, No Iterations 1
GAMG:  Solving for p, Initial residual = 0.004023039, Final residual = 6.2344255e-07, No Iterations 5
time step continuity errors : sum local = 8.5555987e-09, global = 1.5366476e-10, cumulative = 1.5366476e-10
ExecutionTime = 0.23 s  ClockTime = 0 s

fieldMinMax minmaxdomain write:
    min(U) = (-0.0053965379 -0.002009176 0) in cell 0 at location (0.05 -0.45 0.05)
    max(U) = (-0.0053965379 -0.002009176 0) in cell 0 at location (0.05 -0.45 0.05)
    min(p) = 0 in cell 99 at location (10 -0.45 0.05)
    max(p) = 1.6992705 in cell 402 at location (0.25 -0.05 0.05)

surfaceFieldValue inMassFlow write:
    sum(inlet) of phi = -0.00071890444

surfaceFieldValue outMassFlow write:
    sum(outlet) of phi = 0.00071890752

surfaceFieldValue inPre write:
    weightedAverage(inlet) of phi = -7.1890444e-05
    weightedAverage(inlet) of U = (0.007698444 -3.6977048e-11 0)
    weightedAverage(inlet) of p = 1.523

surfaceFieldValue outMax write:
    max(outlet) of U = (0.0073262642 1.262389e-06 0)
    max(outlet) of p = 0

Time = 0.1

Courant Number mean: 0.0036423805 max: 0.0072149452
DILUPBiCG:  Solving for Ux, Initial residual = 0.96363084, Final residual = 2.611652e-09, No Iterations 3
DILUPBiCG:  Solving for Uy, Initial residual = 0.35734319, Final residual = 1.9145152e-09, No Iterations 3
GAMG:  Solving for p, Initial residual = 0.020866969, Final residual = 0.0001125691, No Iterations 3
GAMG:  Solving for p, Initial residual = 0.00011509183, Final residual = 9.093219e-07, No Iterations 3
time step continuity errors : sum local = 1.1619957e-08, global = 6.4094265e-09, cumulative = 6.5630913e-09
ExecutionTime = 0.23 s  ClockTime = 0 s

fieldMinMax minmaxdomain write:
    min(U) = (0.0015691051 -0.002570385 0) in cell 0 at location (0.05 -0.45 0.05)
    max(U) = (0.0015691051 -0.002570385 0) in cell 0 at location (0.05 -0.45 0.05)
    min(p) = 0 in cell 99 at location (10 -0.45 0.05)
    max(p) = 1.523 in cell 0 at location (0 -0.45 0.05)

surfaceFieldValue inMassFlow write:
    sum(inlet) of phi = -0.0014574742

surfaceFieldValue outMassFlow write:
    sum(outlet) of phi = 0.0014576024

surfaceFieldValue inPre write:
    weightedAverage(inlet) of phi = -0.00014574742
    weightedAverage(inlet) of U = (0.014574742 0 0)
    weightedAverage(inlet) of p = 1.523

surfaceFieldValue outMax write:
    max(outlet) of U = (0.014966323 6.7522635e-07 0)
    max(outlet) of p = 0

Time = 0.15

Courant Number mean: 0.0073152952 max: 0.010218278
DILUPBiCG:  Solving for Ux, Initial residual = 0.91047802, Final residual = 1.4408745e-09, No Iterations 3
DILUPBiCG:  Solving for Uy, Initial residual = 0.17579848, Final residual = 1.2322602e-09, No Iterations 3
GAMG:  Solving for p, Initial residual = 0.0036515698, Final residual = 1.1593431e-05, No Iterations 3
GAMG:  Solving for p, Initial residual = 1.1621518e-05, Final residual = 3.5060261e-07, No Iterations 2
time step continuity errors : sum local = 4.4147563e-09, global = -2.7849811e-09, cumulative = 3.7781102e-09
ExecutionTime = 0.25 s  ClockTime = 0 s

fieldMinMax minmaxdomain write:
    min(U) = (0.0084998577 -0.0023615341 0) in cell 0 at location (0.05 -0.45 0.05)
    max(U) = (0.0084998577 -0.0023615341 0) in cell 0 at location (0.05 -0.45 0.05)
    min(p) = 0 in cell 99 at location (10 -0.45 0.05)
    max(p) = 1.523 in cell 0 at location (0 -0.45 0.05)

surfaceFieldValue inMassFlow write:
    sum(inlet) of phi = -0.0021803269

surfaceFieldValue outMassFlow write:
    sum(outlet) of phi = 0.0021802712

surfaceFieldValue inPre write:
    weightedAverage(inlet) of phi = -0.00021803269
    weightedAverage(inlet) of U = (0.021803269 0 0)
    weightedAverage(inlet) of p = 1.523

surfaceFieldValue outMax write:
    max(outlet) of U = (0.022569864 9.7979502e-07 0)
    max(outlet) of p = 0

Time = 0.2

Courant Number mean: 0.010927094 max: 0.013476456
DILUPBiCG:  Solving for Ux, Initial residual = 0.84797621, Final residual = 1.1720244e-09, No Iterations 3
DILUPBiCG:  Solving for Uy, Initial residual = 0.023660112, Final residual = 2.0598268e-10, No Iterations 3
GAMG:  Solving for p, Initial residual = 0.00063322677, Final residual = 1.6411028e-06, No Iterations 3
GAMG:  Solving for p, Initial residual = 1.6420721e-06, Final residual = 3.6261945e-07, No Iterations 1
time step continuity errors : sum local = 4.5547473e-09, global = 2.6327626e-09, cumulative = 6.4108728e-09
ExecutionTime = 0.25 s  ClockTime = 0 s

fieldMinMax minmaxdomain write:
    min(U) = (0.015228578 -0.0020625987 0) in cell 0 at location (0.05 -0.45 0.05)
    max(U) = (0.015228578 -0.0020625987 0) in cell 0 at location (0.05 -0.45 0.05)
    min(p) = 0 in cell 99 at location (10 -0.45 0.05)
    max(p) = 1.523 in cell 0 at location (0 -0.45 0.05)

surfaceFieldValue inMassFlow write:
    sum(inlet) of phi = -0.0028920021

surfaceFieldValue outMassFlow write:
    sum(outlet) of phi = 0.0028920548

surfaceFieldValue inPre write:
    weightedAverage(inlet) of phi = -0.00028920021
    weightedAverage(inlet) of U = (0.028920021 0 0)
    weightedAverage(inlet) of p = 1.523

surfaceFieldValue outMax write:
    max(outlet) of U = (0.030172801 1.1370312e-06 0)
    max(outlet) of p = 0

Time = 0.25

Courant Number mean: 0.014483613 max: 0.01702944
DILUPBiCG:  Solving for Ux, Initial residual = 0.78049158, Final residual = 1.0839651e-09, No Iterations 3
DILUPBiCG:  Solving for Uy, Initial residual = 0.049367494, Final residual = 3.7605918e-10, No Iterations 3
GAMG:  Solving for p, Initial residual = 0.00025150544, Final residual = 5.1064239e-07, No Iterations 3
GAMG:  Solving for p, Initial residual = 5.1073076e-07, Final residual = 5.1073076e-07, No Iterations 0
time step continuity errors : sum local = 6.4033671e-09, global = -3.4853888e-09, cumulative = 2.9254841e-09
ExecutionTime = 0.25 s  ClockTime = 0 s

fieldMinMax minmaxdomain write:
    min(U) = (0.021440476 -0.0017533589 0) in cell 0 at location (0.05 -0.45 0.05)
    max(U) = (0.021440476 -0.0017533589 0) in cell 0 at location (0.05 -0.45 0.05)
    min(p) = 0 in cell 99 at location (10 -0.45 0.05)
    max(p) = 1.523 in cell 0 at location (0 -0.45 0.05)

surfaceFieldValue inMassFlow write:
    sum(inlet) of phi = -0.003593706

surfaceFieldValue outMassFlow write:
    sum(outlet) of phi = 0.0035936363

surfaceFieldValue inPre write:
    weightedAverage(inlet) of phi = -0.0003593706
    weightedAverage(inlet) of U = (0.03593706 0 0)
    weightedAverage(inlet) of p = 1.523

surfaceFieldValue outMax write:
    max(outlet) of U = (0.037774762 1.245274e-06 0)
    max(outlet) of p = 0

Time = 0.3

Courant Number mean: 0.017989263 max: 0.02061516
DILUPBiCG:  Solving for Ux, Initial residual = 0.65184064, Final residual = 1.1187249e-09, No Iterations 3
DILUPBiCG:  Solving for Uy, Initial residual = 0.048717658, Final residual = 4.2100816e-10, No Iterations 3
GAMG:  Solving for p, Initial residual = 0.00010158439, Final residual = 2.5402509e-07, No Iterations 2
GAMG:  Solving for p, Initial residual = 2.540429e-07, Final residual = 2.540429e-07, No Iterations 0
time step continuity errors : sum local = 3.1800714e-09, global = 1.1526733e-09, cumulative = 4.0781574e-09
ExecutionTime = 0.26 s  ClockTime = 0 s

fieldMinMax minmaxdomain write:
    min(U) = (0.027190151 -0.001468892 0) in cell 0 at location (0.05 -0.45 0.05)
    max(U) = (0.027190151 -0.001468892 0) in cell 0 at location (0.05 -0.45 0.05)
    min(p) = 0 in cell 99 at location (10 -0.45 0.05)
    max(p) = 1.523 in cell 0 at location (0 -0.45 0.05)

surfaceFieldValue inMassFlow write:
    sum(inlet) of phi = -0.0042858191

surfaceFieldValue outMassFlow write:
    sum(outlet) of phi = 0.0042858421

surfaceFieldValue inPre write:
    weightedAverage(inlet) of phi = -0.00042858191
    weightedAverage(inlet) of U = (0.042858191 0 0)
    weightedAverage(inlet) of p = 1.523

surfaceFieldValue outMax write:
    max(outlet) of U = (0.045376859 1.3092422e-06 0)
    max(outlet) of p = 0

Time = 0.35

Courant Number mean: 0.02144811 max: 0.024194065
DILUPBiCG:  Solving for Ux, Initial residual = 0.54204248, Final residual = 1.2890731e-09, No Iterations 3
DILUPBiCG:  Solving for Uy, Initial residual = 0.053629413, Final residual = 4.8367887e-10, No Iterations 3
GAMG:  Solving for p, Initial residual = 6.0498809e-05, Final residual = 3.6377169e-07, No Iterations 2
GAMG:  Solving for p, Initial residual = 3.6378253e-07, Final residual = 3.6378253e-07, No Iterations 0
time step continuity errors : sum local = 4.5470115e-09, global = -1.7452369e-09, cumulative = 2.3329205e-09
ExecutionTime = 0.26 s  ClockTime = 0 s

fieldMinMax minmaxdomain write:
    min(U) = (0.032516272 -0.0012170861 0) in cell 0 at location (0.05 -0.45 0.05)
    max(U) = (0.032516272 -0.0012170861 0) in cell 0 at location (0.05 -0.45 0.05)
    min(p) = 0 in cell 99 at location (10 -0.45 0.05)
    max(p) = 1.523 in cell 0 at location (0 -0.45 0.05)

surfaceFieldValue inMassFlow write:
    sum(inlet) of phi = -0.0049693112

surfaceFieldValue outMassFlow write:
    sum(outlet) of phi = 0.0049692763

surfaceFieldValue inPre write:
    weightedAverage(inlet) of phi = -0.00049693112
    weightedAverage(inlet) of U = (0.049693112 0 0)
    weightedAverage(inlet) of p = 1.523

surfaceFieldValue outMax write:
    max(outlet) of U = (0.05297889 1.3377144e-06 0)
    max(outlet) of p = 0

Time = 0.4

Courant Number mean: 0.024863315 max: 0.027773071
DILUPBiCG:  Solving for Ux, Initial residual = 0.45672914, Final residual = 1.7426928e-09, No Iterations 3
DILUPBiCG:  Solving for Uy, Initial residual = 0.055922962, Final residual = 5.3574545e-10, No Iterations 3
GAMG:  Solving for p, Initial residual = 4.1195026e-05, Final residual = 2.1446963e-07, No Iterations 2
GAMG:  Solving for p, Initial residual = 2.1447357e-07, Final residual = 2.1447357e-07, No Iterations 0
time step continuity errors : sum local = 2.6768898e-09, global = -1.1494968e-09, cumulative = 1.1834237e-09
ExecutionTime = 0.26 s  ClockTime = 0 s

fieldMinMax minmaxdomain write:
    min(U) = (0.037464834 -0.00099794498 0) in cell 0 at location (0.05 -0.45 0.05)
    max(U) = (0.037464834 -0.00099794498 0) in cell 0 at location (0.05 -0.45 0.05)
    min(p) = 0 in cell 99 at location (10 -0.45 0.05)
    max(p) = 1.523 in cell 0 at location (0 -0.45 0.05)

surfaceFieldValue inMassFlow write:
    sum(inlet) of phi = -0.0056445193

surfaceFieldValue outMassFlow write:
    sum(outlet) of phi = 0.0056444963

surfaceFieldValue inPre write:
    weightedAverage(inlet) of phi = -0.00056445193
    weightedAverage(inlet) of U = (0.056445193 0 0)
    weightedAverage(inlet) of p = 1.523

surfaceFieldValue outMax write:
    max(outlet) of U = (0.060580836 1.3392728e-06 0)
    max(outlet) of p = 0

Time = 0.45

Courant Number mean: 0.028237594 max: 0.031351018
DILUPBiCG:  Solving for Ux, Initial residual = 0.38998864, Final residual = 3.407721e-09, No Iterations 3
DILUPBiCG:  Solving for Uy, Initial residual = 0.058281725, Final residual = 5.9339627e-10, No Iterations 3
GAMG:  Solving for p, Initial residual = 3.1749354e-05, Final residual = 7.4922031e-07, No Iterations 1
GAMG:  Solving for p, Initial residual = 7.4923092e-07, Final residual = 7.4923092e-07, No Iterations 0
time step continuity errors : sum local = 9.3380594e-09, global = -2.3343926e-09, cumulative = -1.1509689e-09
ExecutionTime = 0.26 s  ClockTime = 0 s

fieldMinMax minmaxdomain write:
    min(U) = (0.042080862 -0.00080879074 0) in cell 0 at location (0.05 -0.45 0.05)
    max(U) = (0.042080862 -0.00080879074 0) in cell 0 at location (0.05 -0.45 0.05)
    min(p) = 0 in cell 99 at location (10 -0.45 0.05)
    max(p) = 1.523 in cell 0 at location (0 -0.45 0.05)

surfaceFieldValue inMassFlow write:
    sum(inlet) of phi = -0.0063120174

surfaceFieldValue outMassFlow write:
    sum(outlet) of phi = 0.0063119707

surfaceFieldValue inPre write:
    weightedAverage(inlet) of phi = -0.00063120174
    weightedAverage(inlet) of U = (0.063120174 0 0)
    weightedAverage(inlet) of p = 1.523

surfaceFieldValue outMax write:
    max(outlet) of U = (0.068182362 1.320288e-06 0)
    max(outlet) of p = 0

Time = 0.5

Courant Number mean: 0.031573307 max: 0.034974056
DILUPBiCG:  Solving for Ux, Initial residual = 0.33711033, Final residual = 2.2358994e-12, No Iterations 4
DILUPBiCG:  Solving for Uy, Initial residual = 0.061344437, Final residual = 6.6290792e-10, No Iterations 3
GAMG:  Solving for p, Initial residual = 2.7277984e-05, Final residual = 9.3245035e-07, No Iterations 1
GAMG:  Solving for p, Initial residual = 9.3246129e-07, Final residual = 9.3246129e-07, No Iterations 0
time step continuity errors : sum local = 1.1605542e-08, global = -4.2311544e-09, cumulative = -5.3821233e-09
ExecutionTime = 0.27 s  ClockTime = 0 s

fieldMinMax minmaxdomain write:
    min(U) = (0.046403914 -0.00064607587 0) in cell 0 at location (0.05 -0.45 0.05)
    max(U) = (0.046403914 -0.00064607587 0) in cell 0 at location (0.05 -0.45 0.05)
    min(p) = 0 in cell 99 at location (10 -0.45 0.05)
    max(p) = 1.523 in cell 0 at location (0 -0.45 0.05)

surfaceFieldValue inMassFlow write:
    sum(inlet) of phi = -0.0069722144

surfaceFieldValue outMassFlow write:
    sum(outlet) of phi = 0.0069721297

surfaceFieldValue inPre write:
    weightedAverage(inlet) of phi = -0.00069722144
    weightedAverage(inlet) of U = (0.069722144 0 0)
    weightedAverage(inlet) of p = 1.523

surfaceFieldValue outMax write:
    max(outlet) of U = (0.075783239 1.2853804e-06 0)
    max(outlet) of p = 0

Time = 0.55

Courant Number mean: 0.034872558 max: 0.038678216
DILUPBiCG:  Solving for Ux, Initial residual = 0.29469168, Final residual = 2.252267e-09, No Iterations 3
DILUPBiCG:  Solving for Uy, Initial residual = 0.064680198, Final residual = 7.4584163e-10, No Iterations 3
GAMG:  Solving for p, Initial residual = 2.368681e-05, Final residual = 7.8105177e-07, No Iterations 1
GAMG:  Solving for p, Initial residual = 7.8106002e-07, Final residual = 7.8106002e-07, No Iterations 0
time step continuity errors : sum local = 9.7078024e-09, global = -1.8774101e-09, cumulative = -7.2595334e-09
ExecutionTime = 0.27 s  ClockTime = 0 s

fieldMinMax minmaxdomain write:
    min(U) = (0.050467624 -0.00050643114 0) in cell 0 at location (0.05 -0.45 0.05)
    max(U) = (0.050467624 -0.00050643114 0) in cell 0 at location (0.05 -0.45 0.05)
    min(p) = 0 in cell 99 at location (10 -0.45 0.05)
    max(p) = 1.523 in cell 0 at location (0 -0.45 0.05)

surfaceFieldValue inMassFlow write:
    sum(inlet) of phi = -0.0076253915

surfaceFieldValue outMassFlow write:
    sum(outlet) of phi = 0.0076253539

surfaceFieldValue inPre write:
    weightedAverage(inlet) of phi = -0.00076253915
    weightedAverage(inlet) of U = (0.076253915 0 0)
    weightedAverage(inlet) of p = 1.523

surfaceFieldValue outMax write:
    max(outlet) of U = (0.08338316 1.2387812e-06 0)
    max(outlet) of p = 0

Time = 0.6

Courant Number mean: 0.03813722 max: 0.04238083
DILUPBiCG:  Solving for Ux, Initial residual = 0.26021578, Final residual = 1.3194852e-09, No Iterations 3
DILUPBiCG:  Solving for Uy, Initial residual = 0.068980992, Final residual = 8.4742611e-10, No Iterations 3
GAMG:  Solving for p, Initial residual = 2.1063753e-05, Final residual = 5.9569704e-07, No Iterations 1
GAMG:  Solving for p, Initial residual = 5.9570268e-07, Final residual = 5.9570268e-07, No Iterations 0
time step continuity errors : sum local = 7.3939388e-09, global = 2.6118917e-09, cumulative = -4.6476418e-09
ExecutionTime = 0.27 s  ClockTime = 0 s

fieldMinMax minmaxdomain write:
    min(U) = (0.054301069 -0.00038616357 0) in cell 0 at location (0.05 -0.45 0.05)
    max(U) = (0.054301069 -0.00038616357 0) in cell 0 at location (0.05 -0.45 0.05)
    min(p) = 0 in cell 99 at location (10 -0.45 0.05)
    max(p) = 1.523 in cell 0 at location (0 -0.45 0.05)

surfaceFieldValue inMassFlow write:
    sum(inlet) of phi = -0.0082719281

surfaceFieldValue outMassFlow write:
    sum(outlet) of phi = 0.0082719804

surfaceFieldValue inPre write:
    weightedAverage(inlet) of phi = -0.00082719281
    weightedAverage(inlet) of U = (0.082719281 0 0)
    weightedAverage(inlet) of p = 1.523

surfaceFieldValue outMax write:
    max(outlet) of U = (0.090981746 1.183863e-06 0)
    max(outlet) of p = 0

Time = 0.65

Courant Number mean: 0.041368971 max: 0.046086145
DILUPBiCG:  Solving for Ux, Initial residual = 0.23184592, Final residual = 9.9494759e-10, No Iterations 3
DILUPBiCG:  Solving for Uy, Initial residual = 0.074902583, Final residual = 9.7948318e-10, No Iterations 3
GAMG:  Solving for p, Initial residual = 1.9194524e-05, Final residual = 6.0203665e-07, No Iterations 1
GAMG:  Solving for p, Initial residual = 6.0204125e-07, Final residual = 6.0204125e-07, No Iterations 0
time step continuity errors : sum local = 7.4626051e-09, global = 6.1698697e-09, cumulative = 1.522228e-09
ExecutionTime = 0.27 s  ClockTime = 0 s

fieldMinMax minmaxdomain write:
    min(U) = (0.057929383 -0.00028164396 0) in cell 0 at location (0.05 -0.45 0.05)
    max(U) = (0.057929383 -0.00028164396 0) in cell 0 at location (0.05 -0.45 0.05)
    min(p) = 0 in cell 99 at location (10 -0.45 0.05)
    max(p) = 1.523 in cell 0 at location (0 -0.45 0.05)

surfaceFieldValue inMassFlow write:
    sum(inlet) of phi = -0.0089121869

surfaceFieldValue outMassFlow write:
    sum(outlet) of phi = 0.0089123103

surfaceFieldValue inPre write:
    weightedAverage(inlet) of phi = -0.00089121869
    weightedAverage(inlet) of U = (0.089121869 0 0)
    weightedAverage(inlet) of p = 1.523

surfaceFieldValue outMax write:
    max(outlet) of U = (0.098578569 1.1231917e-06 0)
    max(outlet) of p = 0

Time = 0.7

Courant Number mean: 0.044569319 max: 0.04979832
DILUPBiCG:  Solving for Ux, Initial residual = 0.2082298, Final residual = 8.4640982e-10, No Iterations 3
DILUPBiCG:  Solving for Uy, Initial residual = 0.083083788, Final residual = 1.1600776e-09, No Iterations 3
GAMG:  Solving for p, Initial residual = 1.841324e-05, Final residual = 7.4787642e-07, No Iterations 1
GAMG:  Solving for p, Initial residual = 7.4787876e-07, Final residual = 7.4787876e-07, No Iterations 0
time step continuity errors : sum local = 9.2581374e-09, global = 7.8788066e-09, cumulative = 9.4010346e-09
ExecutionTime = 0.29 s  ClockTime = 0 s

fieldMinMax minmaxdomain write:
    min(U) = (0.061373953 -0.00018961512 0) in cell 0 at location (0.05 -0.45 0.05)
    max(U) = (0.061373953 -0.00018961512 0) in cell 0 at location (0.05 -0.45 0.05)
    min(p) = 0 in cell 99 at location (10 -0.45 0.05)
    max(p) = 1.523 in cell 0 at location (0 -0.45 0.05)

surfaceFieldValue inMassFlow write:
    sum(inlet) of phi = -0.0095464572

surfaceFieldValue outMassFlow write:
    sum(outlet) of phi = 0.0095466147

surfaceFieldValue inPre write:
    weightedAverage(inlet) of phi = -0.00095464572
    weightedAverage(inlet) of U = (0.095464572 0 0)
    weightedAverage(inlet) of p = 1.523

surfaceFieldValue outMax write:
    max(outlet) of U = (0.10617317 1.0587523e-06 0)
    max(outlet) of p = 0

Time = 0.75

Courant Number mean: 0.047739625 max: 0.053523564
DILUPBiCG:  Solving for Ux, Initial residual = 0.18836068, Final residual = 7.7386881e-10, No Iterations 3
DILUPBiCG:  Solving for Uy, Initial residual = 0.094551314, Final residual = 1.4160876e-09, No Iterations 3
GAMG:  Solving for p, Initial residual = 1.8557885e-05, Final residual = 8.3646019e-07, No Iterations 1
GAMG:  Solving for p, Initial residual = 8.3646249e-07, Final residual = 8.3646249e-07, No Iterations 0
time step continuity errors : sum local = 1.0341262e-08, global = 8.4971398e-09, cumulative = 1.7898174e-08
ExecutionTime = 0.29 s  ClockTime = 0 s

fieldMinMax minmaxdomain write:
    min(U) = (0.064652708 -0.00010690846 0) in cell 0 at location (0.05 -0.45 0.05)
    max(U) = (0.064652708 -0.00010690846 0) in cell 0 at location (0.05 -0.45 0.05)
    min(p) = 0 in cell 99 at location (10 -0.45 0.05)
    max(p) = 1.523 in cell 0 at location (0 -0.45 0.05)

surfaceFieldValue inMassFlow write:
    sum(inlet) of phi = -0.010174972

surfaceFieldValue outMassFlow write:
    sum(outlet) of phi = 0.010175142

surfaceFieldValue inPre write:
    weightedAverage(inlet) of phi = -0.0010174972
    weightedAverage(inlet) of U = (0.10174972 0 0)
    weightedAverage(inlet) of p = 1.523

surfaceFieldValue outMax write:
    max(outlet) of U = (0.11376509 9.9211298e-07 0)
    max(outlet) of p = 0

Time = 0.8

Courant Number mean: 0.050881127 max: 0.057266999
DILUPBiCG:  Solving for Ux, Initial residual = 0.17148012, Final residual = 7.2380874e-10, No Iterations 3
DILUPBiCG:  Solving for Uy, Initial residual = 0.11132837, Final residual = 1.8133892e-09, No Iterations 3
GAMG:  Solving for p, Initial residual = 2.0784006e-05, Final residual = 9.7792507e-07, No Iterations 1
GAMG:  Solving for p, Initial residual = 9.779272e-07, Final residual = 9.779272e-07, No Iterations 0
time step continuity errors : sum local = 1.2074651e-08, global = 8.991376e-09, cumulative = 2.688955e-08
ExecutionTime = 0.29 s  ClockTime = 0 s

fieldMinMax minmaxdomain write:
    min(U) = (0.067779556 -2.8900099e-05 0) in cell 0 at location (0.05 -0.45 0.05)
    max(U) = (0.067779556 -2.8900099e-05 0) in cell 0 at location (0.05 -0.45 0.05)
    min(p) = 0 in cell 99 at location (10 -0.45 0.05)
    max(p) = 1.523 in cell 0 at location (0 -0.45 0.05)

surfaceFieldValue inMassFlow write:
    sum(inlet) of phi = -0.010797938

surfaceFieldValue outMassFlow write:
    sum(outlet) of phi = 0.010798118

surfaceFieldValue inPre write:
    weightedAverage(inlet) of phi = -0.0010797938
    weightedAverage(inlet) of U = (0.10797938 0 0)
    weightedAverage(inlet) of p = 1.523

surfaceFieldValue outMax write:
    max(outlet) of U = (0.12135385 9.2450025e-07 0)
    max(outlet) of p = 0

Time = 0.85

Courant Number mean: 0.053994945 max: 0.061008689
DILUPBiCG:  Solving for Ux, Initial residual = 0.15700986, Final residual = 6.860159e-10, No Iterations 3
DILUPBiCG:  Solving for Uy, Initial residual = 0.13518888, Final residual = 3.7034023e-09, No Iterations 3
GAMG:  Solving for p, Initial residual = 1.644304e-05, Final residual = 9.3624788e-07, No Iterations 1
GAMG:  Solving for p, Initial residual = 9.3624889e-07, Final residual = 9.3624889e-07, No Iterations 0
time step continuity errors : sum local = 1.1545344e-08, global = 8.6747197e-09, cumulative = 3.556427e-08
ExecutionTime = 0.29 s  ClockTime = 0 s

fieldMinMax minmaxdomain write:
    min(U) = (0.070774582 3.7371336e-05 0) in cell 0 at location (0.05 -0.45 0.05)
    max(U) = (0.070774582 3.7371336e-05 0) in cell 0 at location (0.05 -0.45 0.05)
    min(p) = 0 in cell 99 at location (10 -0.45 0.05)
    max(p) = 1.523 in cell 0 at location (0 -0.45 0.05)

surfaceFieldValue inMassFlow write:
    sum(inlet) of phi = -0.011415574

surfaceFieldValue outMassFlow write:
    sum(outlet) of phi = 0.011415748

surfaceFieldValue inPre write:
    weightedAverage(inlet) of phi = -0.0011415574
    weightedAverage(inlet) of U = (0.11415574 0 0)
    weightedAverage(inlet) of p = 1.523

surfaceFieldValue outMax write:
    max(outlet) of U = (0.12893896 8.5688644e-07 0)
    max(outlet) of p = 0

Time = 0.9

Courant Number mean: 0.057082229 max: 0.064748065
DILUPBiCG:  Solving for Ux, Initial residual = 0.14450382, Final residual = 6.5549117e-10, No Iterations 3
DILUPBiCG:  Solving for Uy, Initial residual = 0.1612278, Final residual = 3.2969201e-09, No Iterations 3
GAMG:  Solving for p, Initial residual = 1.8784618e-05, Final residual = 1.2243827e-07, No Iterations 2
GAMG:  Solving for p, Initial residual = 1.2243821e-07, Final residual = 1.2243821e-07, No Iterations 0
time step continuity errors : sum local = 1.5079507e-09, global = 2.0026713e-10, cumulative = 3.5764537e-08
ExecutionTime = 0.3 s  ClockTime = 0 s

fieldMinMax minmaxdomain write:
    min(U) = (0.073652102 9.2668542e-05 0) in cell 0 at location (0.05 -0.45 0.05)
    max(U) = (0.073652102 9.2668542e-05 0) in cell 0 at location (0.05 -0.45 0.05)
    min(p) = 0 in cell 99 at location (10 -0.45 0.05)
    max(p) = 1.523 in cell 0 at location (0 -0.45 0.05)

surfaceFieldValue inMassFlow write:
    sum(inlet) of phi = -0.012028204

surfaceFieldValue outMassFlow write:
    sum(outlet) of phi = 0.012028208

surfaceFieldValue inPre write:
    weightedAverage(inlet) of phi = -0.0012028204
    weightedAverage(inlet) of U = (0.12028204 0 0)
    weightedAverage(inlet) of p = 1.523

surfaceFieldValue outMax write:
    max(outlet) of U = (0.13651978 7.9014613e-07 0)
    max(outlet) of p = 0

Time = 0.95

Courant Number mean: 0.060143951 max: 0.068486248
DILUPBiCG:  Solving for Ux, Initial residual = 0.1336141, Final residual = 6.3256337e-10, No Iterations 3
DILUPBiCG:  Solving for Uy, Initial residual = 0.18518115, Final residual = 3.7357109e-09, No Iterations 3
GAMG:  Solving for p, Initial residual = 1.8203887e-05, Final residual = 7.0170728e-07, No Iterations 1
GAMG:  Solving for p, Initial residual = 7.0171174e-07, Final residual = 7.0171174e-07, No Iterations 0
time step continuity errors : sum local = 8.6314173e-09, global = 3.294585e-09, cumulative = 3.9059122e-08
ExecutionTime = 0.3 s  ClockTime = 0 s

fieldMinMax minmaxdomain write:
    min(U) = (0.076427196 0.00013781513 0) in cell 0 at location (0.05 -0.45 0.05)
    max(U) = (0.076427196 0.00013781513 0) in cell 0 at location (0.05 -0.45 0.05)
    min(p) = 0 in cell 99 at location (10 -0.45 0.05)
    max(p) = 1.523 in cell 0 at location (0 -0.45 0.05)

surfaceFieldValue inMassFlow write:
    sum(inlet) of phi = -0.012635625

surfaceFieldValue outMassFlow write:
    sum(outlet) of phi = 0.012635691

surfaceFieldValue inPre write:
    weightedAverage(inlet) of phi = -0.0012635625
    weightedAverage(inlet) of U = (0.12635625 0 0)
    weightedAverage(inlet) of p = 1.523

surfaceFieldValue outMax write:
    max(outlet) of U = (0.14409595 7.2452912e-07 0)
    max(outlet) of p = 0

Time = 1

Courant Number mean: 0.063181015 max: 0.072228964
DILUPBiCG:  Solving for Ux, Initial residual = 0.12406631, Final residual = 6.145337e-10, No Iterations 3
DILUPBiCG:  Solving for Uy, Initial residual = 0.19342813, Final residual = 4.1467096e-09, No Iterations 3
GAMG:  Solving for p, Initial residual = 1.7070827e-05, Final residual = 1.2819066e-07, No Iterations 2
GAMG:  Solving for p, Initial residual = 1.2819186e-07, Final residual = 1.2819186e-07, No Iterations 0
time step continuity errors : sum local = 1.5748538e-09, global = 6.7838085e-10, cumulative = 3.9737503e-08
ExecutionTime = 0.32 s  ClockTime = 0 s

fieldMinMax minmaxdomain write:
    min(U) = (0.079112672 0.00017495092 0) in cell 0 at location (0.05 -0.45 0.05)
    max(U) = (0.079112672 0.00017495092 0) in cell 0 at location (0.05 -0.45 0.05)
    min(p) = 0 in cell 99 at location (10 -0.45 0.05)
    max(p) = 1.523 in cell 0 at location (0 -0.45 0.05)

surfaceFieldValue inMassFlow write:
    sum(inlet) of phi = -0.013238325

surfaceFieldValue outMassFlow write:
    sum(outlet) of phi = 0.013238339

surfaceFieldValue inPre write:
    weightedAverage(inlet) of phi = -0.0013238325
    weightedAverage(inlet) of U = (0.13238325 0 0)
    weightedAverage(inlet) of p = 1.523

surfaceFieldValue outMax write:
    max(outlet) of U = (0.15166678 6.6094912e-07 0)
    max(outlet) of p = 0

Time = 1.05

Courant Number mean: 0.066194078 max: 0.075967453
DILUPBiCG:  Solving for Ux, Initial residual = 0.11564205, Final residual = 5.9862439e-10, No Iterations 3
DILUPBiCG:  Solving for Uy, Initial residual = 0.18262339, Final residual = 3.960068e-09, No Iterations 3
GAMG:  Solving for p, Initial residual = 1.4564658e-05, Final residual = 7.2907379e-07, No Iterations 1
GAMG:  Solving for p, Initial residual = 7.2907552e-07, Final residual = 7.2907552e-07, No Iterations 0
time step continuity errors : sum local = 8.9458038e-09, global = 7.0072791e-09, cumulative = 4.6744782e-08
ExecutionTime = 0.32 s  ClockTime = 0 s

fieldMinMax minmaxdomain write:
    min(U) = (0.081706422 0.00020738328 0) in cell 0 at location (0.05 -0.45 0.05)
    max(U) = (0.081706422 0.00020738328 0) in cell 0 at location (0.05 -0.45 0.05)
    min(p) = 0 in cell 99 at location (10 -0.45 0.05)
    max(p) = 1.523 in cell 0 at location (0 -0.45 0.05)

surfaceFieldValue inMassFlow write:
    sum(inlet) of phi = -0.013836164

surfaceFieldValue outMassFlow write:
    sum(outlet) of phi = 0.013836305

surfaceFieldValue inPre write:
    weightedAverage(inlet) of phi = -0.0013836164
    weightedAverage(inlet) of U = (0.13836164 0 0)
    weightedAverage(inlet) of p = 1.523

surfaceFieldValue outMax write:
    max(outlet) of U = (0.15923175 5.9948649e-07 0)
    max(outlet) of p = 0

Time = 1.1

Courant Number mean: 0.069183983 max: 0.079709922
DILUPBiCG:  Solving for Ux, Initial residual = 0.10816571, Final residual = 5.8432328e-10, No Iterations 3
DILUPBiCG:  Solving for Uy, Initial residual = 0.16693893, Final residual = 3.6320313e-09, No Iterations 3
GAMG:  Solving for p, Initial residual = 1.384942e-05, Final residual = 1.6811221e-07, No Iterations 2
GAMG:  Solving for p, Initial residual = 1.681132e-07, Final residual = 1.681132e-07, No Iterations 0
time step continuity errors : sum local = 2.060242e-09, global = 4.8953044e-10, cumulative = 4.7234313e-08
ExecutionTime = 0.32 s  ClockTime = 0 s

fieldMinMax minmaxdomain write:
    min(U) = (0.084220798 0.00023574383 0) in cell 0 at location (0.05 -0.45 0.05)
    max(U) = (0.084220798 0.00023574383 0) in cell 0 at location (0.05 -0.45 0.05)
    min(p) = 0 in cell 99 at location (10 -0.45 0.05)
    max(p) = 1.523 in cell 0 at location (0 -0.45 0.05)

surfaceFieldValue inMassFlow write:
    sum(inlet) of phi = -0.014429691

surfaceFieldValue outMassFlow write:
    sum(outlet) of phi = 0.0144297

surfaceFieldValue inPre write:
    weightedAverage(inlet) of phi = -0.0014429691
    weightedAverage(inlet) of U = (0.14429691 0 0)
    weightedAverage(inlet) of p = 1.523

surfaceFieldValue outMax write:
    max(outlet) of U = (0.16679006 5.4089626e-07 0)
    max(outlet) of p = 0

Time = 1.15

Courant Number mean: 0.072151238 max: 0.083459837
DILUPBiCG:  Solving for Ux, Initial residual = 0.10149499, Final residual = 5.7950412e-10, No Iterations 3
DILUPBiCG:  Solving for Uy, Initial residual = 0.14501239, Final residual = 3.3171164e-09, No Iterations 3
GAMG:  Solving for p, Initial residual = 1.3969749e-05, Final residual = 6.8614915e-07, No Iterations 1
GAMG:  Solving for p, Initial residual = 6.8615073e-07, Final residual = 6.8615073e-07, No Iterations 0
time step continuity errors : sum local = 8.3987073e-09, global = 4.8809346e-09, cumulative = 5.2115247e-08
ExecutionTime = 0.32 s  ClockTime = 0 s

fieldMinMax minmaxdomain write:
    min(U) = (0.08665798 0.00026065394 0) in cell 0 at location (0.05 -0.45 0.05)
    max(U) = (0.08665798 0.00026065394 0) in cell 0 at location (0.05 -0.45 0.05)
    min(p) = 0 in cell 99 at location (10 -0.45 0.05)
    max(p) = 1.523 in cell 0 at location (0 -0.45 0.05)

surfaceFieldValue inMassFlow write:
    sum(inlet) of phi = -0.015018575

surfaceFieldValue outMassFlow write:
    sum(outlet) of phi = 0.015018673

surfaceFieldValue inPre write:
    weightedAverage(inlet) of phi = -0.0015018575
    weightedAverage(inlet) of U = (0.15018575 0 0)
    weightedAverage(inlet) of p = 1.523

surfaceFieldValue outMax write:
    max(outlet) of U = (0.1743413 4.8468111e-07 0)
    max(outlet) of p = 0

Time = 1.2

Courant Number mean: 0.0750965 max: 0.087204953
DILUPBiCG:  Solving for Ux, Initial residual = 0.095513411, Final residual = 5.7799167e-10, No Iterations 3
DILUPBiCG:  Solving for Uy, Initial residual = 0.12234297, Final residual = 2.9601334e-09, No Iterations 3
GAMG:  Solving for p, Initial residual = 1.193371e-05, Final residual = 9.5513564e-07, No Iterations 1
GAMG:  Solving for p, Initial residual = 9.551392e-07, Final residual = 9.551392e-07, No Iterations 0
time step continuity errors : sum local = 1.1677233e-08, global = 8.66932e-09, cumulative = 6.0784567e-08
ExecutionTime = 0.34 s  ClockTime = 0 s

fieldMinMax minmaxdomain write:
    min(U) = (0.089025832 0.00028278601 0) in cell 0 at location (0.05 -0.45 0.05)
    max(U) = (0.089025832 0.00028278601 0) in cell 0 at location (0.05 -0.45 0.05)
    min(p) = 0 in cell 99 at location (10 -0.45 0.05)
    max(p) = 1.523 in cell 0 at location (0 -0.45 0.05)

surfaceFieldValue inMassFlow write:
    sum(inlet) of phi = -0.015603156

surfaceFieldValue outMassFlow write:
    sum(outlet) of phi = 0.015603329

surfaceFieldValue inPre write:
    weightedAverage(inlet) of phi = -0.0015603156
    weightedAverage(inlet) of U = (0.15603156 0 0)
    weightedAverage(inlet) of p = 1.523

surfaceFieldValue outMax write:
    max(outlet) of U = (0.18188481 4.3144841e-07 0)
    max(outlet) of p = 0

Time = 1.25

Courant Number mean: 0.07802034 max: 0.090960066
DILUPBiCG:  Solving for Ux, Initial residual = 0.090123757, Final residual = 5.7702463e-10, No Iterations 3
DILUPBiCG:  Solving for Uy, Initial residual = 0.1021915, Final residual = 2.6444198e-09, No Iterations 3
GAMG:  Solving for p, Initial residual = 1.2898653e-05, Final residual = 1.7702776e-07, No Iterations 2
GAMG:  Solving for p, Initial residual = 1.7702846e-07, Final residual = 1.7702846e-07, No Iterations 0
time step continuity errors : sum local = 2.1617305e-09, global = 6.1888816e-10, cumulative = 6.1403455e-08
ExecutionTime = 0.34 s  ClockTime = 0 s

fieldMinMax minmaxdomain write:
    min(U) = (0.091331609 0.00030240922 0) in cell 0 at location (0.05 -0.45 0.05)
    max(U) = (0.091331609 0.00030240922 0) in cell 0 at location (0.05 -0.45 0.05)
    min(p) = 0 in cell 99 at location (10 -0.45 0.05)
    max(p) = 1.523 in cell 0 at location (0 -0.45 0.05)

surfaceFieldValue inMassFlow write:
    sum(inlet) of phi = -0.016183741

surfaceFieldValue outMassFlow write:
    sum(outlet) of phi = 0.016183753

surfaceFieldValue inPre write:
    weightedAverage(inlet) of phi = -0.0016183741
    weightedAverage(inlet) of U = (0.16183741 0 0)
    weightedAverage(inlet) of p = 1.523

surfaceFieldValue outMax write:
    max(outlet) of U = (0.18941971 3.8790206e-07 0)
    max(outlet) of p = 0

Time = 1.3

Courant Number mean: 0.08092314 max: 0.094711175
DILUPBiCG:  Solving for Ux, Initial residual = 0.085246976, Final residual = 5.7642957e-10, No Iterations 3
DILUPBiCG:  Solving for Uy, Initial residual = 0.086453371, Final residual = 2.4217949e-09, No Iterations 3
GAMG:  Solving for p, Initial residual = 1.128761e-05, Final residual = 5.3960338e-07, No Iterations 1
GAMG:  Solving for p, Initial residual = 5.3960404e-07, Final residual = 5.3960404e-07, No Iterations 0
time step continuity errors : sum local = 6.5814958e-09, global = 4.4859416e-09, cumulative = 6.5889397e-08
ExecutionTime = 0.34 s  ClockTime = 0 s

fieldMinMax minmaxdomain write:
    min(U) = (0.09357503 0.00031987327 0) in cell 0 at location (0.05 -0.45 0.05)
    max(U) = (0.09357503 0.00031987327 0) in cell 0 at location (0.05 -0.45 0.05)
    min(p) = 0 in cell 99 at location (10 -0.45 0.05)
    max(p) = 1.523 in cell 0 at location (0 -0.45 0.05)

surfaceFieldValue inMassFlow write:
    sum(inlet) of phi = -0.016759985

surfaceFieldValue outMassFlow write:
    sum(outlet) of phi = 0.016760075

surfaceFieldValue inPre write:
    weightedAverage(inlet) of phi = -0.0016759985
    weightedAverage(inlet) of U = (0.16759985 0 0)
    weightedAverage(inlet) of p = 1.523

surfaceFieldValue outMax write:
    max(outlet) of U = (0.19694568 3.4712824e-07 0)
    max(outlet) of p = 0

Time = 1.35

Courant Number mean: 0.083805508 max: 0.098472092
DILUPBiCG:  Solving for Ux, Initial residual = 0.080695299, Final residual = 5.7537081e-10, No Iterations 3
DILUPBiCG:  Solving for Uy, Initial residual = 0.07455772, Final residual = 2.25065e-09, No Iterations 3
GAMG:  Solving for p, Initial residual = 1.1497904e-05, Final residual = 8.9348119e-07, No Iterations 1
GAMG:  Solving for p, Initial residual = 8.9348281e-07, Final residual = 8.9348281e-07, No Iterations 0
time step continuity errors : sum local = 1.088506e-08, global = 8.5522804e-09, cumulative = 7.4441677e-08
ExecutionTime = 0.34 s  ClockTime = 0 s

fieldMinMax minmaxdomain write:
    min(U) = (0.095763093 0.00033544835 0) in cell 0 at location (0.05 -0.45 0.05)
    max(U) = (0.095763093 0.00033544835 0) in cell 0 at location (0.05 -0.45 0.05)
    min(p) = 0 in cell 99 at location (10 -0.45 0.05)
    max(p) = 1.523 in cell 0 at location (0 -0.45 0.05)

surfaceFieldValue inMassFlow write:
    sum(inlet) of phi = -0.017332208

surfaceFieldValue outMassFlow write:
    sum(outlet) of phi = 0.017332379

surfaceFieldValue inPre write:
    weightedAverage(inlet) of phi = -0.0017332208
    weightedAverage(inlet) of U = (0.17332208 0 0)
    weightedAverage(inlet) of p = 1.523

surfaceFieldValue outMax write:
    max(outlet) of U = (0.204462 3.0761413e-07 0)
    max(outlet) of p = 0

Time = 1.4

Courant Number mean: 0.086667823 max: 0.10223039
DILUPBiCG:  Solving for Ux, Initial residual = 0.076440904, Final residual = 5.7347554e-10, No Iterations 3
DILUPBiCG:  Solving for Uy, Initial residual = 0.064395181, Final residual = 2.1466092e-09, No Iterations 3
GAMG:  Solving for p, Initial residual = 1.1111821e-05, Final residual = 1.8716121e-07, No Iterations 2
GAMG:  Solving for p, Initial residual = 1.8716174e-07, Final residual = 1.8716174e-07, No Iterations 0
time step continuity errors : sum local = 2.2775158e-09, global = 7.3675023e-10, cumulative = 7.5178428e-08
ExecutionTime = 0.36 s  ClockTime = 0 s

fieldMinMax minmaxdomain write:
    min(U) = (0.097902302 0.0003493041 0) in cell 0 at location (0.05 -0.45 0.05)
    max(U) = (0.097902302 0.0003493041 0) in cell 0 at location (0.05 -0.45 0.05)
    min(p) = 0 in cell 99 at location (10 -0.45 0.05)
    max(p) = 1.523 in cell 0 at location (0 -0.45 0.05)

surfaceFieldValue inMassFlow write:
    sum(inlet) of phi = -0.017900714

surfaceFieldValue outMassFlow write:
    sum(outlet) of phi = 0.017900729

surfaceFieldValue inPre write:
    weightedAverage(inlet) of phi = -0.0017900714
    weightedAverage(inlet) of U = (0.17900714 0 0)
    weightedAverage(inlet) of p = 1.523

surfaceFieldValue outMax write:
    max(outlet) of U = (0.2119678 2.7012445e-07 0)
    max(outlet) of p = 0

Time = 1.45

Courant Number mean: 0.08951046 max: 0.1059834
DILUPBiCG:  Solving for Ux, Initial residual = 0.072557903, Final residual = 5.7157985e-10, No Iterations 3
DILUPBiCG:  Solving for Uy, Initial residual = 0.055886958, Final residual = 2.1477755e-09, No Iterations 3
GAMG:  Solving for p, Initial residual = 1.0534265e-05, Final residual = 5.2785006e-07, No Iterations 1
GAMG:  Solving for p, Initial residual = 5.2785057e-07, Final residual = 5.2785057e-07, No Iterations 0
time step continuity errors : sum local = 6.4159466e-09, global = 4.93753e-09, cumulative = 8.0115958e-08
ExecutionTime = 0.36 s  ClockTime = 0 s

fieldMinMax minmaxdomain write:
    min(U) = (0.099990849 0.00036165787 0) in cell 0 at location (0.05 -0.45 0.05)
    max(U) = (0.099990849 0.00036165787 0) in cell 0 at location (0.05 -0.45 0.05)
    min(p) = 0 in cell 99 at location (10 -0.45 0.05)
    max(p) = 1.523 in cell 0 at location (0 -0.45 0.05)

surfaceFieldValue inMassFlow write:
    sum(inlet) of phi = -0.018465136

surfaceFieldValue outMassFlow write:
    sum(outlet) of phi = 0.018465235

surfaceFieldValue inPre write:
    weightedAverage(inlet) of phi = -0.0018465136
    weightedAverage(inlet) of U = (0.18465136 0 0)
    weightedAverage(inlet) of p = 1.523

surfaceFieldValue outMax write:
    max(outlet) of U = (0.21946273 2.3420446e-07 0)
    max(outlet) of p = 0

Time = 1.5

Courant Number mean: 0.092333812 max: 0.10973096
DILUPBiCG:  Solving for Ux, Initial residual = 0.069000758, Final residual = 5.6980561e-10, No Iterations 3
DILUPBiCG:  Solving for Uy, Initial residual = 0.049886469, Final residual = 3.1516812e-09, No Iterations 3
GAMG:  Solving for p, Initial residual = 1.0510935e-05, Final residual = 9.3191928e-07, No Iterations 1
GAMG:  Solving for p, Initial residual = 9.3192016e-07, Final residual = 9.3192016e-07, No Iterations 0
time step continuity errors : sum local = 1.1314592e-08, global = 8.4068334e-09, cumulative = 8.8522791e-08
ExecutionTime = 0.36 s  ClockTime = 0 s

fieldMinMax minmaxdomain write:
    min(U) = (0.10203472 0.00037270167 0) in cell 0 at location (0.05 -0.45 0.05)
    max(U) = (0.10203472 0.00037270167 0) in cell 0 at location (0.05 -0.45 0.05)
    min(p) = 0 in cell 99 at location (10 -0.45 0.05)
    max(p) = 1.523 in cell 0 at location (0 -0.45 0.05)

surfaceFieldValue inMassFlow write:
    sum(inlet) of phi = -0.019025799

surfaceFieldValue outMassFlow write:
    sum(outlet) of phi = 0.019025967

surfaceFieldValue inPre write:
    weightedAverage(inlet) of phi = -0.0019025799
    weightedAverage(inlet) of U = (0.19025799 0 0)
    weightedAverage(inlet) of p = 1.523

surfaceFieldValue outMax write:
    max(outlet) of U = (0.2269461 2.0050433e-07 0)
    max(outlet) of p = 0

Time = 1.55

Courant Number mean: 0.095138257 max: 0.11347272
DILUPBiCG:  Solving for Ux, Initial residual = 0.065734043, Final residual = 5.7808506e-10, No Iterations 3
DILUPBiCG:  Solving for Uy, Initial residual = 0.044926228, Final residual = 3.1757965e-09, No Iterations 3
GAMG:  Solving for p, Initial residual = 1.0415679e-05, Final residual = 1.8877956e-07, No Iterations 2
GAMG:  Solving for p, Initial residual = 1.8877984e-07, Final residual = 1.8877984e-07, No Iterations 0
time step continuity errors : sum local = 2.2894453e-09, global = 7.4783063e-10, cumulative = 8.9270622e-08
ExecutionTime = 0.36 s  ClockTime = 0 s

fieldMinMax minmaxdomain write:
    min(U) = (0.1040388 0.00038253688 0) in cell 0 at location (0.05 -0.45 0.05)
    max(U) = (0.1040388 0.00038253688 0) in cell 0 at location (0.05 -0.45 0.05)
    min(p) = 0 in cell 99 at location (10 -0.45 0.05)
    max(p) = 1.523 in cell 0 at location (0 -0.45 0.05)

surfaceFieldValue inMassFlow write:
    sum(inlet) of phi = -0.019582957

surfaceFieldValue outMassFlow write:
    sum(outlet) of phi = 0.019582972

surfaceFieldValue inPre write:
    weightedAverage(inlet) of phi = -0.0019582957
    weightedAverage(inlet) of U = (0.19582957 0 0)
    weightedAverage(inlet) of p = 1.523

surfaceFieldValue outMax write:
    max(outlet) of U = (0.23441702 1.6938866e-07 0)
    max(outlet) of p = 0

Time = 1.6

Courant Number mean: 0.097924152 max: 0.11720825
DILUPBiCG:  Solving for Ux, Initial residual = 0.062725602, Final residual = 5.9118787e-10, No Iterations 3
DILUPBiCG:  Solving for Uy, Initial residual = 0.040841177, Final residual = 2.7012811e-09, No Iterations 3
GAMG:  Solving for p, Initial residual = 1.0093085e-05, Final residual = 5.5190208e-07, No Iterations 1
GAMG:  Solving for p, Initial residual = 5.5190178e-07, Final residual = 5.5190178e-07, No Iterations 0
time step continuity errors : sum local = 6.685833e-09, global = 5.0253925e-09, cumulative = 9.4296014e-08
ExecutionTime = 0.38 s  ClockTime = 0 s

fieldMinMax minmaxdomain write:
    min(U) = (0.10600081 0.00039130912 0) in cell 0 at location (0.05 -0.45 0.05)
    max(U) = (0.10600081 0.00039130912 0) in cell 0 at location (0.05 -0.45 0.05)
    min(p) = 0 in cell 99 at location (10 -0.45 0.05)
    max(p) = 1.523 in cell 0 at location (0 -0.45 0.05)

surfaceFieldValue inMassFlow write:
    sum(inlet) of phi = -0.02013625

surfaceFieldValue outMassFlow write:
    sum(outlet) of phi = 0.020136351

surfaceFieldValue inPre write:
    weightedAverage(inlet) of phi = -0.002013625
    weightedAverage(inlet) of U = (0.2013625 0 0)
    weightedAverage(inlet) of p = 1.523

surfaceFieldValue outMax write:
    max(outlet) of U = (0.24187517 1.4008862e-07 0)
    max(outlet) of p = 0

Time = 1.65

Courant Number mean: 0.10069185 max: 0.12093739
DILUPBiCG:  Solving for Ux, Initial residual = 0.059947559, Final residual = 6.0394997e-10, No Iterations 3
DILUPBiCG:  Solving for Uy, Initial residual = 0.037525116, Final residual = 3.199626e-09, No Iterations 3
GAMG:  Solving for p, Initial residual = 1.0180991e-05, Final residual = 9.2736022e-07, No Iterations 1
GAMG:  Solving for p, Initial residual = 9.273603e-07, Final residual = 9.273603e-07, No Iterations 0
time step continuity errors : sum local = 1.1221863e-08, global = 8.15134e-09, cumulative = 1.0244735e-07
ExecutionTime = 0.38 s  ClockTime = 0 s

fieldMinMax minmaxdomain write:
    min(U) = (0.10792593 0.00039915908 0) in cell 0 at location (0.05 -0.45 0.05)
    max(U) = (0.10792593 0.00039915908 0) in cell 0 at location (0.05 -0.45 0.05)
    min(p) = 0 in cell 99 at location (10 -0.45 0.05)
    max(p) = 1.523 in cell 0 at location (0 -0.45 0.05)

surfaceFieldValue inMassFlow write:
    sum(inlet) of phi = -0.020685996

surfaceFieldValue outMassFlow write:
    sum(outlet) of phi = 0.020686159

surfaceFieldValue inPre write:
    weightedAverage(inlet) of phi = -0.0020685996
    weightedAverage(inlet) of U = (0.20685996 0 0)
    weightedAverage(inlet) of p = 1.523

surfaceFieldValue outMax write:
    max(outlet) of U = (0.24931989 1.1325059e-07 0)
    max(outlet) of p = 0

Time = 1.7

Courant Number mean: 0.10344165 max: 0.1246598
DILUPBiCG:  Solving for Ux, Initial residual = 0.057321353, Final residual = 6.1589014e-10, No Iterations 3
DILUPBiCG:  Solving for Uy, Initial residual = 0.034635229, Final residual = 3.4713687e-11, No Iterations 4
GAMG:  Solving for p, Initial residual = 1.0049117e-05, Final residual = 1.8607634e-07, No Iterations 2
GAMG:  Solving for p, Initial residual = 1.8607653e-07, Final residual = 1.8607653e-07, No Iterations 0
time step continuity errors : sum local = 2.2492318e-09, global = 7.9127528e-10, cumulative = 1.0323863e-07
ExecutionTime = 0.38 s  ClockTime = 0 s

fieldMinMax minmaxdomain write:
    min(U) = (0.10981808 0.00040613683 0) in cell 0 at location (0.05 -0.45 0.05)
    max(U) = (0.10981808 0.00040613683 0) in cell 0 at location (0.05 -0.45 0.05)
    min(p) = 0 in cell 99 at location (10 -0.45 0.05)
    max(p) = 1.523 in cell 0 at location (0 -0.45 0.05)

surfaceFieldValue inMassFlow write:
    sum(inlet) of phi = -0.021232418

surfaceFieldValue outMassFlow write:
    sum(outlet) of phi = 0.021232434

surfaceFieldValue inPre write:
    weightedAverage(inlet) of phi = -0.0021232418
    weightedAverage(inlet) of U = (0.21232418 0 0)
    weightedAverage(inlet) of p = 1.523

surfaceFieldValue outMax write:
    max(outlet) of U = (0.25675031 8.9148028e-08 0)
    max(outlet) of p = 0

Time = 1.75

Courant Number mean: 0.10617388 max: 0.12837505
DILUPBiCG:  Solving for Ux, Initial residual = 0.054758811, Final residual = 6.2609888e-10, No Iterations 3
DILUPBiCG:  Solving for Uy, Initial residual = 0.032147098, Final residual = 3.0955131e-09, No Iterations 3
GAMG:  Solving for p, Initial residual = 9.677318e-06, Final residual = 5.6936097e-07, No Iterations 1
GAMG:  Solving for p, Initial residual = 5.6936059e-07, Final residual = 5.6936059e-07, No Iterations 0
time step continuity errors : sum local = 6.8748105e-09, global = 5.2165913e-09, cumulative = 1.0845522e-07
ExecutionTime = 0.38 s  ClockTime = 0 s

fieldMinMax minmaxdomain write:
    min(U) = (0.11167456 0.00041235151 0) in cell 0 at location (0.05 -0.45 0.05)
    max(U) = (0.11167456 0.00041235151 0) in cell 0 at location (0.05 -0.45 0.05)
    min(p) = 0 in cell 99 at location (10 -0.45 0.05)
    max(p) = 1.523 in cell 0 at location (0 -0.45 0.05)

surfaceFieldValue inMassFlow write:
    sum(inlet) of phi = -0.021775161

surfaceFieldValue outMassFlow write:
    sum(outlet) of phi = 0.021775265

surfaceFieldValue inPre write:
    weightedAverage(inlet) of phi = -0.0021775161
    weightedAverage(inlet) of U = (0.21775161 0 0)
    weightedAverage(inlet) of p = 1.523

surfaceFieldValue outMax write:
    max(outlet) of U = (0.26416615 6.6788608e-08 0)
    max(outlet) of p = 0

Time = 1.8

Courant Number mean: 0.10888881 max: 0.132083
DILUPBiCG:  Solving for Ux, Initial residual = 0.052385307, Final residual = 6.3593385e-10, No Iterations 3
DILUPBiCG:  Solving for Uy, Initial residual = 0.030075845, Final residual = 1.7222467e-09, No Iterations 3
GAMG:  Solving for p, Initial residual = 9.8481407e-06, Final residual = 9.2607227e-07, No Iterations 1
GAMG:  Solving for p, Initial residual = 9.2607234e-07, Final residual = 9.2607234e-07, No Iterations 0
time step continuity errors : sum local = 1.1169983e-08, global = 7.8479592e-09, cumulative = 1.1630318e-07
ExecutionTime = 0.39 s  ClockTime = 0 s

fieldMinMax minmaxdomain write:
    min(U) = (0.11350001 0.00041790956 0) in cell 0 at location (0.05 -0.45 0.05)
    max(U) = (0.11350001 0.00041790956 0) in cell 0 at location (0.05 -0.45 0.05)
    min(p) = 0 in cell 99 at location (10 -0.45 0.05)
    max(p) = 1.523 in cell 0 at location (0 -0.45 0.05)

surfaceFieldValue inMassFlow write:
    sum(inlet) of phi = -0.022314542

surfaceFieldValue outMassFlow write:
    sum(outlet) of phi = 0.022314699

surfaceFieldValue inPre write:
    weightedAverage(inlet) of phi = -0.0022314542
    weightedAverage(inlet) of U = (0.22314542 0 0)
    weightedAverage(inlet) of p = 1.523

surfaceFieldValue outMax write:
    max(outlet) of U = (0.27156675 4.6842013e-08 0)
    max(outlet) of p = 0

Time = 1.85

Courant Number mean: 0.11158673 max: 0.13578333
DILUPBiCG:  Solving for Ux, Initial residual = 0.050181732, Final residual = 6.45588e-10, No Iterations 3
DILUPBiCG:  Solving for Uy, Initial residual = 0.028195256, Final residual = 1.62741e-09, No Iterations 3
GAMG:  Solving for p, Initial residual = 9.6706361e-06, Final residual = 1.8086476e-07, No Iterations 2
GAMG:  Solving for p, Initial residual = 1.8086497e-07, Final residual = 1.8086497e-07, No Iterations 0
time step continuity errors : sum local = 2.1792122e-09, global = 8.1598258e-10, cumulative = 1.1711916e-07
ExecutionTime = 0.39 s  ClockTime = 0 s

fieldMinMax minmaxdomain write:
    min(U) = (0.11529759 0.00042282597 0) in cell 0 at location (0.05 -0.45 0.05)
    max(U) = (0.11529759 0.00042282597 0) in cell 0 at location (0.05 -0.45 0.05)
    min(p) = 0 in cell 99 at location (10 -0.45 0.05)
    max(p) = 1.523 in cell 0 at location (0 -0.45 0.05)

surfaceFieldValue inMassFlow write:
    sum(inlet) of phi = -0.022850748

surfaceFieldValue outMassFlow write:
    sum(outlet) of phi = 0.022850765

surfaceFieldValue inPre write:
    weightedAverage(inlet) of phi = -0.0022850748
    weightedAverage(inlet) of U = (0.22850748 0 0)
    weightedAverage(inlet) of p = 1.523

surfaceFieldValue outMax write:
    max(outlet) of U = (0.27895129 2.953716e-08 0)
    max(outlet) of p = 0

Time = 1.9

Courant Number mean: 0.1142679 max: 0.13947562
DILUPBiCG:  Solving for Ux, Initial residual = 0.048131768, Final residual = 6.5507451e-10, No Iterations 3
DILUPBiCG:  Solving for Uy, Initial residual = 0.026511276, Final residual = 1.5665066e-09, No Iterations 3
GAMG:  Solving for p, Initial residual = 9.2601085e-06, Final residual = 5.8378843e-07, No Iterations 1
GAMG:  Solving for p, Initial residual = 5.8378809e-07, Final residual = 5.8378809e-07, No Iterations 0
time step continuity errors : sum local = 7.0265455e-09, global = 5.3469264e-09, cumulative = 1.2246609e-07
ExecutionTime = 0.39 s  ClockTime = 0 s

fieldMinMax minmaxdomain write:
    min(U) = (0.11706438 0.00042718682 0) in cell 0 at location (0.05 -0.45 0.05)
    max(U) = (0.11706438 0.00042718682 0) in cell 0 at location (0.05 -0.45 0.05)
    min(p) = 0 in cell 99 at location (10 -0.45 0.05)
    max(p) = 1.523 in cell 0 at location (0 -0.45 0.05)

surfaceFieldValue inMassFlow write:
    sum(inlet) of phi = -0.023383437

surfaceFieldValue outMassFlow write:
    sum(outlet) of phi = 0.023383544

surfaceFieldValue inPre write:
    weightedAverage(inlet) of phi = -0.0023383437
    weightedAverage(inlet) of U = (0.23383437 0 0)
    weightedAverage(inlet) of p = 1.523

surfaceFieldValue outMax write:
    max(outlet) of U = (0.28631953 1.5081956e-08 0)
    max(outlet) of p = 0

Time = 1.95

Courant Number mean: 0.11693256 max: 0.14315976
DILUPBiCG:  Solving for Ux, Initial residual = 0.046221248, Final residual = 6.6420197e-10, No Iterations 3
DILUPBiCG:  Solving for Uy, Initial residual = 0.025103916, Final residual = 1.5404348e-09, No Iterations 3
GAMG:  Solving for p, Initial residual = 9.5187168e-06, Final residual = 9.2151522e-07, No Iterations 1
GAMG:  Solving for p, Initial residual = 9.2151534e-07, Final residual = 9.2151534e-07, No Iterations 0
time step continuity errors : sum local = 1.1079858e-08, global = 7.4767115e-09, cumulative = 1.299428e-07
ExecutionTime = 0.39 s  ClockTime = 0 s

fieldMinMax minmaxdomain write:
    min(U) = (0.11880463 0.00043107716 0) in cell 0 at location (0.05 -0.45 0.05)
    max(U) = (0.11880463 0.00043107716 0) in cell 0 at location (0.05 -0.45 0.05)
    min(p) = 0 in cell 99 at location (10 -0.45 0.05)
    max(p) = 1.523 in cell 0 at location (0 -0.45 0.05)

surfaceFieldValue inMassFlow write:
    sum(inlet) of phi = -0.023912927

surfaceFieldValue outMassFlow write:
    sum(outlet) of phi = 0.023913076

surfaceFieldValue inPre write:
    weightedAverage(inlet) of phi = -0.0023912927
    weightedAverage(inlet) of U = (0.23912927 0 0)
    weightedAverage(inlet) of p = 1.523

surfaceFieldValue outMax write:
    max(outlet) of U = (0.29367085 6.830616e-09 0)
    max(outlet) of p = 0

Time = 2

Courant Number mean: 0.11958096 max: 0.14683543
DILUPBiCG:  Solving for Ux, Initial residual = 0.044437256, Final residual = 6.7320234e-10, No Iterations 3
DILUPBiCG:  Solving for Uy, Initial residual = 0.02377276, Final residual = 1.5411077e-09, No Iterations 3
GAMG:  Solving for p, Initial residual = 9.2935481e-06, Final residual = 1.7355002e-07, No Iterations 2
GAMG:  Solving for p, Initial residual = 1.735502e-07, Final residual = 1.735502e-07, No Iterations 0
time step continuity errors : sum local = 2.084514e-09, global = 8.2710144e-10, cumulative = 1.307699e-07
ExecutionTime = 0.4 s  ClockTime = 0 s

fieldMinMax minmaxdomain write:
    min(U) = (0.1205209 0.00043448734 0) in cell 0 at location (0.05 -0.45 0.05)
    max(U) = (0.1205209 0.00043448734 0) in cell 0 at location (0.05 -0.45 0.05)
    min(p) = 0 in cell 99 at location (10 -0.45 0.05)
    max(p) = 1.523 in cell 0 at location (0 -0.45 0.05)

surfaceFieldValue inMassFlow write:
    sum(inlet) of phi = -0.024439367

surfaceFieldValue outMassFlow write:
    sum(outlet) of phi = 0.024439383

surfaceFieldValue inPre write:
    weightedAverage(inlet) of phi = -0.0024439367
    weightedAverage(inlet) of U = (0.24439367 0 0)
    weightedAverage(inlet) of p = 1.523

surfaceFieldValue outMax write:
    max(outlet) of U = (0.30100447 1.2415746e-08 0)
    max(outlet) of p = 0

Time = 2.05

Courant Number mean: 0.12221332 max: 0.15050226
DILUPBiCG:  Solving for Ux, Initial residual = 0.04276834, Final residual = 6.8208096e-10, No Iterations 3
DILUPBiCG:  Solving for Uy, Initial residual = 0.022551949, Final residual = 1.5377718e-09, No Iterations 3
GAMG:  Solving for p, Initial residual = 8.8485933e-06, Final residual = 5.9410739e-07, No Iterations 1
GAMG:  Solving for p, Initial residual = 5.9410704e-07, Final residual = 5.9410704e-07, No Iterations 0
time step continuity errors : sum local = 7.1284698e-09, global = 5.4505623e-09, cumulative = 1.3622046e-07
ExecutionTime = 0.42 s  ClockTime = 0 s

fieldMinMax minmaxdomain write:
    min(U) = (0.12221017 0.00043748809 0) in cell 0 at location (0.05 -0.45 0.05)
    max(U) = (0.12221017 0.00043748809 0) in cell 0 at location (0.05 -0.45 0.05)
    min(p) = 0 in cell 99 at location (10 -0.45 0.05)
    max(p) = 1.523 in cell 0 at location (0 -0.45 0.05)

surfaceFieldValue inMassFlow write:
    sum(inlet) of phi = -0.024962433

surfaceFieldValue outMassFlow write:
    sum(outlet) of phi = 0.024962542

surfaceFieldValue inPre write:
    weightedAverage(inlet) of phi = -0.0024962433
    weightedAverage(inlet) of U = (0.24962433 0 0)
    weightedAverage(inlet) of p = 1.523

surfaceFieldValue outMax write:
    max(outlet) of U = (0.30832019 2.1372543e-08 0)
    max(outlet) of p = 0

Time = 2.1

Courant Number mean: 0.12482987 max: 0.15416013
DILUPBiCG:  Solving for Ux, Initial residual = 0.041204253, Final residual = 6.9076765e-10, No Iterations 3
DILUPBiCG:  Solving for Uy, Initial residual = 0.0215313, Final residual = 1.5394975e-09, No Iterations 3
GAMG:  Solving for p, Initial residual = 9.2481295e-06, Final residual = 9.1534528e-07, No Iterations 1
GAMG:  Solving for p, Initial residual = 9.1534528e-07, Final residual = 9.1534528e-07, No Iterations 0
time step continuity errors : sum local = 1.0971646e-08, global = 7.053897e-09, cumulative = 1.4327436e-07
ExecutionTime = 0.42 s  ClockTime = 0 s

fieldMinMax minmaxdomain write:
    min(U) = (0.12387645 0.00044015087 0) in cell 0 at location (0.05 -0.45 0.05)
    max(U) = (0.12387645 0.00044015087 0) in cell 0 at location (0.05 -0.45 0.05)
    min(p) = 0 in cell 99 at location (10 -0.45 0.05)
    max(p) = 1.523 in cell 0 at location (0 -0.45 0.05)

surfaceFieldValue inMassFlow write:
    sum(inlet) of phi = -0.025482442

surfaceFieldValue outMassFlow write:
    sum(outlet) of phi = 0.025482584

surfaceFieldValue inPre write:
    weightedAverage(inlet) of phi = -0.0025482442
    weightedAverage(inlet) of U = (0.25482442 0 0)
    weightedAverage(inlet) of p = 1.523

surfaceFieldValue outMax write:
    max(outlet) of U = (0.31561743 2.9844189e-08 0)
    max(outlet) of p = 0

Time = 2.15

Courant Number mean: 0.1274308 max: 0.15780875
DILUPBiCG:  Solving for Ux, Initial residual = 0.039736, Final residual = 7.023533e-10, No Iterations 3
DILUPBiCG:  Solving for Uy, Initial residual = 0.020546012, Final residual = 1.5443597e-09, No Iterations 3
GAMG:  Solving for p, Initial residual = 8.9733983e-06, Final residual = 9.9743426e-07, No Iterations 1
GAMG:  Solving for p, Initial residual = 9.9743447e-07, Final residual = 9.9743447e-07, No Iterations 0
time step continuity errors : sum local = 1.1943448e-08, global = 5.8049329e-09, cumulative = 1.4907929e-07
ExecutionTime = 0.42 s  ClockTime = 0 s

fieldMinMax minmaxdomain write:
    min(U) = (0.12552069 0.00044246968 0) in cell 0 at location (0.05 -0.45 0.05)
    max(U) = (0.12552069 0.00044246968 0) in cell 0 at location (0.05 -0.45 0.05)
    min(p) = 0 in cell 99 at location (10 -0.45 0.05)
    max(p) = 1.523 in cell 0 at location (0 -0.45 0.05)

surfaceFieldValue inMassFlow write:
    sum(inlet) of phi = -0.025999423

surfaceFieldValue outMassFlow write:
    sum(outlet) of phi = 0.025999539

surfaceFieldValue inPre write:
    weightedAverage(inlet) of phi = -0.0025999423
    weightedAverage(inlet) of U = (0.25999423 0 0)
    weightedAverage(inlet) of p = 1.523

surfaceFieldValue outMax write:
    max(outlet) of U = (0.32289559 3.6476051e-08 0)
    max(outlet) of p = 0

Time = 2.2

Courant Number mean: 0.13001633 max: 0.16144784
DILUPBiCG:  Solving for Ux, Initial residual = 0.038355502, Final residual = 7.3540056e-10, No Iterations 3
DILUPBiCG:  Solving for Uy, Initial residual = 0.019718431, Final residual = 1.548306e-09, No Iterations 3
GAMG:  Solving for p, Initial residual = 8.5784608e-06, Final residual = 8.9363606e-07, No Iterations 1
GAMG:  Solving for p, Initial residual = 8.9363596e-07, Final residual = 8.9363596e-07, No Iterations 0
time step continuity errors : sum local = 1.0689757e-08, global = 6.2997633e-09, cumulative = 1.5537906e-07
ExecutionTime = 0.42 s  ClockTime = 0 s

fieldMinMax minmaxdomain write:
    min(U) = (0.12714291 0.00044446738 0) in cell 0 at location (0.05 -0.45 0.05)
    max(U) = (0.12714291 0.00044446738 0) in cell 0 at location (0.05 -0.45 0.05)
    min(p) = 0 in cell 99 at location (10 -0.45 0.05)
    max(p) = 1.523 in cell 0 at location (0 -0.45 0.05)

surfaceFieldValue inMassFlow write:
    sum(inlet) of phi = -0.026513324

surfaceFieldValue outMassFlow write:
    sum(outlet) of phi = 0.02651345

surfaceFieldValue inPre write:
    weightedAverage(inlet) of phi = -0.0026513324
    weightedAverage(inlet) of U = (0.26513324 0 0)
    weightedAverage(inlet) of p = 1.523

surfaceFieldValue outMax write:
    max(outlet) of U = (0.33015424 4.1739979e-08 0)
    max(outlet) of p = 0

Time = 2.25

Courant Number mean: 0.13258665 max: 0.16507716
DILUPBiCG:  Solving for Ux, Initial residual = 0.037055519, Final residual = 7.7709777e-10, No Iterations 3
DILUPBiCG:  Solving for Uy, Initial residual = 0.018979346, Final residual = 1.552176e-09, No Iterations 3
GAMG:  Solving for p, Initial residual = 8.5911389e-06, Final residual = 8.8749022e-07, No Iterations 1
GAMG:  Solving for p, Initial residual = 8.8748998e-07, Final residual = 8.8748998e-07, No Iterations 0
time step continuity errors : sum local = 1.0605612e-08, global = 6.419351e-09, cumulative = 1.6179841e-07
ExecutionTime = 0.43 s  ClockTime = 0 s

fieldMinMax minmaxdomain write:
    min(U) = (0.12874425 0.0004461922 0) in cell 0 at location (0.05 -0.45 0.05)
    max(U) = (0.12874425 0.0004461922 0) in cell 0 at location (0.05 -0.45 0.05)
    min(p) = 0 in cell 99 at location (10 -0.45 0.05)
    max(p) = 1.523 in cell 0 at location (0 -0.45 0.05)

surfaceFieldValue inMassFlow write:
    sum(inlet) of phi = -0.027024228

surfaceFieldValue outMassFlow write:
    sum(outlet) of phi = 0.027024357

surfaceFieldValue inPre write:
    weightedAverage(inlet) of phi = -0.0027024228
    weightedAverage(inlet) of U = (0.27024228 0 0)
    weightedAverage(inlet) of p = 1.523

surfaceFieldValue outMax write:
    max(outlet) of U = (0.33739293 4.5771547e-08 0)
    max(outlet) of p = 0

Time = 2.3

Courant Number mean: 0.13514193 max: 0.16869651
DILUPBiCG:  Solving for Ux, Initial residual = 0.035829583, Final residual = 8.240164e-10, No Iterations 3
DILUPBiCG:  Solving for Uy, Initial residual = 0.018296579, Final residual = 1.5616144e-09, No Iterations 3
GAMG:  Solving for p, Initial residual = 8.4752306e-06, Final residual = 8.8091759e-07, No Iterations 1
GAMG:  Solving for p, Initial residual = 8.8091733e-07, Final residual = 8.8091733e-07, No Iterations 0
time step continuity errors : sum local = 1.0516609e-08, global = 6.1925073e-09, cumulative = 1.6799092e-07
ExecutionTime = 0.43 s  ClockTime = 0 s

fieldMinMax minmaxdomain write:
    min(U) = (0.13032556 0.00044766976 0) in cell 0 at location (0.05 -0.45 0.05)
    max(U) = (0.13032556 0.00044766976 0) in cell 0 at location (0.05 -0.45 0.05)
    min(p) = 0 in cell 99 at location (10 -0.45 0.05)
    max(p) = 1.523 in cell 0 at location (0 -0.45 0.05)

surfaceFieldValue inMassFlow write:
    sum(inlet) of phi = -0.027532171

surfaceFieldValue outMassFlow write:
    sum(outlet) of phi = 0.027532295

surfaceFieldValue inPre write:
    weightedAverage(inlet) of phi = -0.0027532171
    weightedAverage(inlet) of U = (0.27532171 0 0)
    weightedAverage(inlet) of p = 1.523

surfaceFieldValue outMax write:
    max(outlet) of U = (0.34461123 4.8646422e-08 0)
    max(outlet) of p = 0

Time = 2.35

Courant Number mean: 0.13768238 max: 0.17230566
DILUPBiCG:  Solving for Ux, Initial residual = 0.034671866, Final residual = 8.765119e-10, No Iterations 3
DILUPBiCG:  Solving for Uy, Initial residual = 0.017656625, Final residual = 1.573039e-09, No Iterations 3
GAMG:  Solving for p, Initial residual = 8.3596531e-06, Final residual = 8.7104583e-07, No Iterations 1
GAMG:  Solving for p, Initial residual = 8.7104554e-07, Final residual = 8.7104554e-07, No Iterations 0
time step continuity errors : sum local = 1.03885e-08, global = 6.0263969e-09, cumulative = 1.7401731e-07
ExecutionTime = 0.43 s  ClockTime = 0 s

fieldMinMax minmaxdomain write:
    min(U) = (0.1318875 0.00044892 0) in cell 0 at location (0.05 -0.45 0.05)
    max(U) = (0.1318875 0.00044892 0) in cell 0 at location (0.05 -0.45 0.05)
    min(p) = 0 in cell 99 at location (10 -0.45 0.05)
    max(p) = 1.523 in cell 0 at location (0 -0.45 0.05)

surfaceFieldValue inMassFlow write:
    sum(inlet) of phi = -0.028037179

surfaceFieldValue outMassFlow write:
    sum(outlet) of phi = 0.028037299

surfaceFieldValue inPre write:
    weightedAverage(inlet) of phi = -0.0028037179
    weightedAverage(inlet) of U = (0.28037179 0 0)
    weightedAverage(inlet) of p = 1.523

surfaceFieldValue outMax write:
    max(outlet) of U = (0.35180872 5.0467357e-08 0)
    max(outlet) of p = 0

Time = 2.4

Courant Number mean: 0.14020814 max: 0.17590441
DILUPBiCG:  Solving for Ux, Initial residual = 0.033577117, Final residual = 9.3585652e-10, No Iterations 3
DILUPBiCG:  Solving for Uy, Initial residual = 0.017051496, Final residual = 1.5828603e-09, No Iterations 3
GAMG:  Solving for p, Initial residual = 8.2653724e-06, Final residual = 8.6403199e-07, No Iterations 1
GAMG:  Solving for p, Initial residual = 8.6403168e-07, Final residual = 8.6403168e-07, No Iterations 0
time step continuity errors : sum local = 1.0294758e-08, global = 5.8777458e-09, cumulative = 1.7989506e-07
ExecutionTime = 0.43 s  ClockTime = 0 s

fieldMinMax minmaxdomain write:
    min(U) = (0.13343075 0.00044996381 0) in cell 0 at location (0.05 -0.45 0.05)
    max(U) = (0.13343075 0.00044996381 0) in cell 0 at location (0.05 -0.45 0.05)
    min(p) = 0 in cell 99 at location (10 -0.45 0.05)
    max(p) = 1.523 in cell 0 at location (0 -0.45 0.05)

surfaceFieldValue inMassFlow write:
    sum(inlet) of phi = -0.028539286

surfaceFieldValue outMassFlow write:
    sum(outlet) of phi = 0.028539403

surfaceFieldValue inPre write:
    weightedAverage(inlet) of phi = -0.0028539286
    weightedAverage(inlet) of U = (0.28539286 0 0)
    weightedAverage(inlet) of p = 1.523

surfaceFieldValue outMax write:
    max(outlet) of U = (0.358985 5.134524e-08 0)
    max(outlet) of p = 0

Time = 2.45

Courant Number mean: 0.1427194 max: 0.17949254
DILUPBiCG:  Solving for Ux, Initial residual = 0.032540593, Final residual = 1.0146512e-09, No Iterations 3
DILUPBiCG:  Solving for Uy, Initial residual = 0.016476497, Final residual = 1.5912554e-09, No Iterations 3
GAMG:  Solving for p, Initial residual = 8.1610014e-06, Final residual = 8.5535946e-07, No Iterations 1
GAMG:  Solving for p, Initial residual = 8.5535914e-07, Final residual = 8.5535914e-07, No Iterations 0
time step continuity errors : sum local = 1.0181517e-08, global = 5.7224641e-09, cumulative = 1.8561752e-07
ExecutionTime = 0.43 s  ClockTime = 0 s

fieldMinMax minmaxdomain write:
    min(U) = (0.13495595 0.00045081985 0) in cell 0 at location (0.05 -0.45 0.05)
    max(U) = (0.13495595 0.00045081985 0) in cell 0 at location (0.05 -0.45 0.05)
    min(p) = 0 in cell 99 at location (10 -0.45 0.05)
    max(p) = 1.523 in cell 0 at location (0 -0.45 0.05)

surfaceFieldValue inMassFlow write:
    sum(inlet) of phi = -0.029038524

surfaceFieldValue outMassFlow write:
    sum(outlet) of phi = 0.029038638

surfaceFieldValue inPre write:
    weightedAverage(inlet) of phi = -0.0029038524
    weightedAverage(inlet) of U = (0.29038524 0 0)
    weightedAverage(inlet) of p = 1.523

surfaceFieldValue outMax write:
    max(outlet) of U = (0.36613965 5.1396855e-08 0)
    max(outlet) of p = 0

Time = 2.5

Courant Number mean: 0.14521632 max: 0.18306987
DILUPBiCG:  Solving for Ux, Initial residual = 0.031558, Final residual = 1.131743e-09, No Iterations 3
DILUPBiCG:  Solving for Uy, Initial residual = 0.015933051, Final residual = 1.5984028e-09, No Iterations 3
GAMG:  Solving for p, Initial residual = 8.0565937e-06, Final residual = 8.460426e-07, No Iterations 1
GAMG:  Solving for p, Initial residual = 8.4604227e-07, Final residual = 8.4604227e-07, No Iterations 0
time step continuity errors : sum local = 1.0060895e-08, global = 5.5735186e-09, cumulative = 1.9119104e-07
ExecutionTime = 0.45 s  ClockTime = 0 s

fieldMinMax minmaxdomain write:
    min(U) = (0.1364637 0.0004515049 0) in cell 0 at location (0.05 -0.45 0.05)
    max(U) = (0.1364637 0.0004515049 0) in cell 0 at location (0.05 -0.45 0.05)
    min(p) = 0 in cell 99 at location (10 -0.45 0.05)
    max(p) = 1.523 in cell 0 at location (0 -0.45 0.05)

surfaceFieldValue inMassFlow write:
    sum(inlet) of phi = -0.029534925

surfaceFieldValue outMassFlow write:
    sum(outlet) of phi = 0.029535037

surfaceFieldValue inPre write:
    weightedAverage(inlet) of phi = -0.0029534925
    weightedAverage(inlet) of U = (0.29534925 0 0)
    weightedAverage(inlet) of p = 1.523

surfaceFieldValue outMax write:
    max(outlet) of U = (0.37327231 5.0735119e-08 0)
    max(outlet) of p = 0

Time = 2.55

Courant Number mean: 0.14769904 max: 0.18663619
DILUPBiCG:  Solving for Ux, Initial residual = 0.030625443, Final residual = 1.2766257e-09, No Iterations 3
DILUPBiCG:  Solving for Uy, Initial residual = 0.01541595, Final residual = 1.6042633e-09, No Iterations 3
GAMG:  Solving for p, Initial residual = 7.9582233e-06, Final residual = 8.3740736e-07, No Iterations 1
GAMG:  Solving for p, Initial residual = 8.3740702e-07, Final residual = 8.3740702e-07, No Iterations 0
time step continuity errors : sum local = 9.9486613e-09, global = 5.4240126e-09, cumulative = 1.9661505e-07
ExecutionTime = 0.45 s  ClockTime = 0 s

fieldMinMax minmaxdomain write:
    min(U) = (0.13795456 0.00045203436 0) in cell 0 at location (0.05 -0.45 0.05)
    max(U) = (0.13795456 0.00045203436 0) in cell 0 at location (0.05 -0.45 0.05)
    min(p) = 0 in cell 99 at location (10 -0.45 0.05)
    max(p) = 1.523 in cell 0 at location (0 -0.45 0.05)

surfaceFieldValue inMassFlow write:
    sum(inlet) of phi = -0.030028519

surfaceFieldValue outMassFlow write:
    sum(outlet) of phi = 0.030028628

surfaceFieldValue inPre write:
    weightedAverage(inlet) of phi = -0.0030028519
    weightedAverage(inlet) of U = (0.30028519 0 0)
    weightedAverage(inlet) of p = 1.523

surfaceFieldValue outMax write:
    max(outlet) of U = (0.38038262 4.9462367e-08 0)
    max(outlet) of p = 0

Time = 2.6

Courant Number mean: 0.15016773 max: 0.19019134
DILUPBiCG:  Solving for Ux, Initial residual = 0.029739381, Final residual = 1.4457803e-09, No Iterations 3
DILUPBiCG:  Solving for Uy, Initial residual = 0.014921644, Final residual = 1.613683e-09, No Iterations 3
GAMG:  Solving for p, Initial residual = 7.8452233e-06, Final residual = 8.2891703e-07, No Iterations 1
GAMG:  Solving for p, Initial residual = 8.2891664e-07, Final residual = 8.2891664e-07, No Iterations 0
time step continuity errors : sum local = 9.8384209e-09, global = 5.2732288e-09, cumulative = 2.0188828e-07
ExecutionTime = 0.45 s  ClockTime = 0 s

fieldMinMax minmaxdomain write:
    min(U) = (0.13942907 0.00045242216 0) in cell 0 at location (0.05 -0.45 0.05)
    max(U) = (0.13942907 0.00045242216 0) in cell 0 at location (0.05 -0.45 0.05)
    min(p) = 0 in cell 99 at location (10 -0.45 0.05)
    max(p) = 1.523 in cell 0 at location (0 -0.45 0.05)

surfaceFieldValue inMassFlow write:
    sum(inlet) of phi = -0.030519336

surfaceFieldValue outMassFlow write:
    sum(outlet) of phi = 0.030519442

surfaceFieldValue inPre write:
    weightedAverage(inlet) of phi = -0.0030519336
    weightedAverage(inlet) of U = (0.30519336 0 0)
    weightedAverage(inlet) of p = 1.523

surfaceFieldValue outMax write:
    max(outlet) of U = (0.38747022 4.7672837e-08 0)
    max(outlet) of p = 0

Time = 2.65

Courant Number mean: 0.15262252 max: 0.19373515
DILUPBiCG:  Solving for Ux, Initial residual = 0.028896587, Final residual = 1.6453643e-09, No Iterations 3
DILUPBiCG:  Solving for Uy, Initial residual = 0.014450229, Final residual = 1.6239083e-09, No Iterations 3
GAMG:  Solving for p, Initial residual = 7.7415446e-06, Final residual = 8.2063232e-07, No Iterations 1
GAMG:  Solving for p, Initial residual = 8.2063162e-07, Final residual = 8.2063162e-07, No Iterations 0
time step continuity errors : sum local = 9.7308882e-09, global = 5.1230771e-09, cumulative = 2.0701136e-07
ExecutionTime = 0.45 s  ClockTime = 0 s

fieldMinMax minmaxdomain write:
    min(U) = (0.14088772 0.0004526809 0) in cell 0 at location (0.05 -0.45 0.05)
    max(U) = (0.14088772 0.0004526809 0) in cell 0 at location (0.05 -0.45 0.05)
    min(p) = 0 in cell 99 at location (10 -0.45 0.05)
    max(p) = 1.523 in cell 0 at location (0 -0.45 0.05)

surfaceFieldValue inMassFlow write:
    sum(inlet) of phi = -0.031007404

surfaceFieldValue outMassFlow write:
    sum(outlet) of phi = 0.031007506

surfaceFieldValue inPre write:
    weightedAverage(inlet) of phi = -0.0031007404
    weightedAverage(inlet) of U = (0.31007404 0 0)
    weightedAverage(inlet) of p = 1.523

surfaceFieldValue outMax write:
    max(outlet) of U = (0.3945348 4.5454259e-08 0)
    max(outlet) of p = 0

Time = 2.7

Courant Number mean: 0.15506356 max: 0.19726743
DILUPBiCG:  Solving for Ux, Initial residual = 0.028094118, Final residual = 1.8845727e-09, No Iterations 3
DILUPBiCG:  Solving for Uy, Initial residual = 0.014004524, Final residual = 1.6326459e-09, No Iterations 3
GAMG:  Solving for p, Initial residual = 7.6444418e-06, Final residual = 8.1232543e-07, No Iterations 1
GAMG:  Solving for p, Initial residual = 8.1232472e-07, Final residual = 8.1232472e-07, No Iterations 0
time step continuity errors : sum local = 9.6233542e-09, global = 4.9748326e-09, cumulative = 2.1198619e-07
ExecutionTime = 0.46 s  ClockTime = 0 s

fieldMinMax minmaxdomain write:
    min(U) = (0.14233098 0.00045282196 0) in cell 0 at location (0.05 -0.45 0.05)
    max(U) = (0.14233098 0.00045282196 0) in cell 0 at location (0.05 -0.45 0.05)
    min(p) = 0 in cell 99 at location (10 -0.45 0.05)
    max(p) = 1.523 in cell 0 at location (0 -0.45 0.05)

surfaceFieldValue inMassFlow write:
    sum(inlet) of phi = -0.031492749

surfaceFieldValue outMassFlow write:
    sum(outlet) of phi = 0.031492849

surfaceFieldValue inPre write:
    weightedAverage(inlet) of phi = -0.0031492749
    weightedAverage(inlet) of U = (0.31492749 0 0)
    weightedAverage(inlet) of p = 1.523

surfaceFieldValue outMax write:
    max(outlet) of U = (0.40157603 4.2888415e-08 0)
    max(outlet) of p = 0

Time = 2.75

Courant Number mean: 0.15749099 max: 0.20078804
DILUPBiCG:  Solving for Ux, Initial residual = 0.027329284, Final residual = 2.1755247e-09, No Iterations 3
DILUPBiCG:  Solving for Uy, Initial residual = 0.013576394, Final residual = 1.6408196e-09, No Iterations 3
GAMG:  Solving for p, Initial residual = 7.5489242e-06, Final residual = 8.039251e-07, No Iterations 1
GAMG:  Solving for p, Initial residual = 8.0392438e-07, Final residual = 8.0392438e-07, No Iterations 0
time step continuity errors : sum local = 9.5149696e-09, global = 4.8274047e-09, cumulative = 2.168136e-07
ExecutionTime = 0.46 s  ClockTime = 0 s

fieldMinMax minmaxdomain write:
    min(U) = (0.14375929 0.00045285565 0) in cell 0 at location (0.05 -0.45 0.05)
    max(U) = (0.14375929 0.00045285565 0) in cell 0 at location (0.05 -0.45 0.05)
    min(p) = 0 in cell 99 at location (10 -0.45 0.05)
    max(p) = 1.523 in cell 0 at location (0 -0.45 0.05)

surfaceFieldValue inMassFlow write:
    sum(inlet) of phi = -0.0319754

surfaceFieldValue outMassFlow write:
    sum(outlet) of phi = 0.031975496

surfaceFieldValue inPre write:
    weightedAverage(inlet) of phi = -0.00319754
    weightedAverage(inlet) of U = (0.319754 0 0)
    weightedAverage(inlet) of p = 1.523

surfaceFieldValue outMax write:
    max(outlet) of U = (0.40859361 4.0050677e-08 0)
    max(outlet) of p = 0

Time = 2.8

Courant Number mean: 0.15990494 max: 0.20429683
DILUPBiCG:  Solving for Ux, Initial residual = 0.026599621, Final residual = 2.5361295e-09, No Iterations 3
DILUPBiCG:  Solving for Uy, Initial residual = 0.013169499, Final residual = 1.6478008e-09, No Iterations 3
GAMG:  Solving for p, Initial residual = 7.452621e-06, Final residual = 7.9545574e-07, No Iterations 1
GAMG:  Solving for p, Initial residual = 7.9545478e-07, Final residual = 7.9545478e-07, No Iterations 0
time step continuity errors : sum local = 9.4060261e-09, global = 4.6821558e-09, cumulative = 2.2149575e-07
ExecutionTime = 0.46 s  ClockTime = 0 s

fieldMinMax minmaxdomain write:
    min(U) = (0.14517307 0.00045279128 0) in cell 0 at location (0.05 -0.45 0.05)
    max(U) = (0.14517307 0.00045279128 0) in cell 0 at location (0.05 -0.45 0.05)
    min(p) = 0 in cell 99 at location (10 -0.45 0.05)
    max(p) = 1.523 in cell 0 at location (0 -0.45 0.05)

surfaceFieldValue inMassFlow write:
    sum(inlet) of phi = -0.032455381

surfaceFieldValue outMassFlow write:
    sum(outlet) of phi = 0.032455475

surfaceFieldValue inPre write:
    weightedAverage(inlet) of phi = -0.0032455381
    weightedAverage(inlet) of U = (0.32455381 0 0)
    weightedAverage(inlet) of p = 1.523

surfaceFieldValue outMax write:
    max(outlet) of U = (0.41558725 3.7009263e-08 0)
    max(outlet) of p = 0

Time = 2.85

Courant Number mean: 0.16230555 max: 0.20779365
DILUPBiCG:  Solving for Ux, Initial residual = 0.025902867, Final residual = 2.9905749e-09, No Iterations 3
DILUPBiCG:  Solving for Uy, Initial residual = 0.01277999, Final residual = 1.6551377e-09, No Iterations 3
GAMG:  Solving for p, Initial residual = 7.3579875e-06, Final residual = 7.8689026e-07, No Iterations 1
GAMG:  Solving for p, Initial residual = 7.8688918e-07, Final residual = 7.8688918e-07, No Iterations 0
time step continuity errors : sum local = 9.2962036e-09, global = 4.5373906e-09, cumulative = 2.2603314e-07
ExecutionTime = 0.46 s  ClockTime = 0 s

fieldMinMax minmaxdomain write:
    min(U) = (0.14657272 0.00045263726 0) in cell 0 at location (0.05 -0.45 0.05)
    max(U) = (0.14657272 0.00045263726 0) in cell 0 at location (0.05 -0.45 0.05)
    min(p) = 0 in cell 99 at location (10 -0.45 0.05)
    max(p) = 1.523 in cell 0 at location (0 -0.45 0.05)

surfaceFieldValue inMassFlow write:
    sum(inlet) of phi = -0.032932719

surfaceFieldValue outMassFlow write:
    sum(outlet) of phi = 0.032932809

surfaceFieldValue inPre write:
    weightedAverage(inlet) of phi = -0.0032932719
    weightedAverage(inlet) of U = (0.32932719 0 0)
    weightedAverage(inlet) of p = 1.523

surfaceFieldValue outMax write:
    max(outlet) of U = (0.42255669 3.3826221e-08 0)
    max(outlet) of p = 0

Time = 2.9

[...]
ExecutionTime = 1.76 s  ClockTime = 2 s

fieldMinMax minmaxdomain write:
    min(U) = (0.33703867 0.00011604848 0) in cell 0 at location (0.05 -0.45 0.05)
    max(U) = (0.33703867 0.00011604848 0) in cell 0 at location (0.05 -0.45 0.05)
    min(p) = 0 in cell 99 at location (10 -0.45 0.05)
    max(p) = 1.523 in cell 0 at location (0 -0.45 0.05)

surfaceFieldValue inMassFlow write:
    sum(inlet) of phi = -0.10943341

surfaceFieldValue outMassFlow write:
    sum(outlet) of phi = 0.10943339

surfaceFieldValue inPre write:
    weightedAverage(inlet) of phi = -0.010943341
    weightedAverage(inlet) of U = (1.0943341 0 0)
    weightedAverage(inlet) of p = 1.523

surfaceFieldValue outMax write:
    max(outlet) of U = (1.5950057 1.6262293e-06 0)
    max(outlet) of p = 0

Time = 19.35

Courant Number mean: 0.54720908 max: 0.79750286
DILUPBiCG:  Solving for Ux, Initial residual = 0.001106869, Final residual = 5.0430516e-09, No Iterations 3
DILUPBiCG:  Solving for Uy, Initial residual = 0.0018025239, Final residual = 6.6695034e-09, No Iterations 3
GAMG:  Solving for p, Initial residual = 1.9195674e-06, Final residual = 2.972497e-07, No Iterations 1
GAMG:  Solving for p, Initial residual = 2.9724943e-07, Final residual = 2.9724943e-07, No Iterations 0
time step continuity errors : sum local = 3.0746496e-09, global = -6.9866949e-10, cumulative = 3.4482071e-07
ExecutionTime = 1.76 s  ClockTime = 2 s

fieldMinMax minmaxdomain write:
    min(U) = (0.3372482 0.0001155041 0) in cell 0 at location (0.05 -0.45 0.05)
    max(U) = (0.3372482 0.0001155041 0) in cell 0 at location (0.05 -0.45 0.05)
    min(p) = 0 in cell 99 at location (10 -0.45 0.05)
    max(p) = 1.523 in cell 0 at location (0 -0.45 0.05)

surfaceFieldValue inMassFlow write:
    sum(inlet) of phi = -0.10952715

surfaceFieldValue outMassFlow write:
    sum(outlet) of phi = 0.10952714

surfaceFieldValue inPre write:
    weightedAverage(inlet) of phi = -0.010952715
    weightedAverage(inlet) of U = (1.0952715 0 0)
    weightedAverage(inlet) of p = 1.523

surfaceFieldValue outMax write:
    max(outlet) of U = (1.5964524 1.6384811e-06 0)
    max(outlet) of p = 0

Time = 19.4

Courant Number mean: 0.54767764 max: 0.79822623
DILUPBiCG:  Solving for Ux, Initial residual = 0.0011005377, Final residual = 5.0884591e-09, No Iterations 3
DILUPBiCG:  Solving for Uy, Initial residual = 0.0018046575, Final residual = 6.6926258e-09, No Iterations 3
GAMG:  Solving for p, Initial residual = 1.9139042e-06, Final residual = 2.965277e-07, No Iterations 1
GAMG:  Solving for p, Initial residual = 2.9652743e-07, Final residual = 2.9652743e-07, No Iterations 0
time step continuity errors : sum local = 3.066734e-09, global = -6.9456272e-10, cumulative = 3.4412615e-07
ExecutionTime = 1.76 s  ClockTime = 2 s

fieldMinMax minmaxdomain write:
    min(U) = (0.33745669 0.00011496228 0) in cell 0 at location (0.05 -0.45 0.05)
    max(U) = (0.33745669 0.00011496228 0) in cell 0 at location (0.05 -0.45 0.05)
    min(p) = 0 in cell 99 at location (10 -0.45 0.05)
    max(p) = 1.523 in cell 0 at location (0 -0.45 0.05)

surfaceFieldValue inMassFlow write:
    sum(inlet) of phi = -0.10962045

surfaceFieldValue outMassFlow write:
    sum(outlet) of phi = 0.10962043

surfaceFieldValue inPre write:
    weightedAverage(inlet) of phi = -0.010962045
    weightedAverage(inlet) of U = (1.0962045 0 0)
    weightedAverage(inlet) of p = 1.523

surfaceFieldValue outMax write:
    max(outlet) of U = (1.5978923 1.6505902e-06 0)
    max(outlet) of p = 0

Time = 19.45

Courant Number mean: 0.54814397 max: 0.79894616
DILUPBiCG:  Solving for Ux, Initial residual = 0.0010942494, Final residual = 5.1346572e-09, No Iterations 3
DILUPBiCG:  Solving for Uy, Initial residual = 0.0018067896, Final residual = 6.7157422e-09, No Iterations 3
GAMG:  Solving for p, Initial residual = 1.9082371e-06, Final residual = 2.9580223e-07, No Iterations 1
GAMG:  Solving for p, Initial residual = 2.9580195e-07, Final residual = 2.9580195e-07, No Iterations 0
time step continuity errors : sum local = 3.0587869e-09, global = -6.9047911e-10, cumulative = 3.4343567e-07
ExecutionTime = 1.76 s  ClockTime = 2 s

fieldMinMax minmaxdomain write:
    min(U) = (0.33766415 0.000114423 0) in cell 0 at location (0.05 -0.45 0.05)
    max(U) = (0.33766415 0.000114423 0) in cell 0 at location (0.05 -0.45 0.05)
    min(p) = 0 in cell 99 at location (10 -0.45 0.05)
    max(p) = 1.523 in cell 0 at location (0 -0.45 0.05)

surfaceFieldValue inMassFlow write:
    sum(inlet) of phi = -0.1097133

surfaceFieldValue outMassFlow write:
    sum(outlet) of phi = 0.10971329

surfaceFieldValue inPre write:
    weightedAverage(inlet) of phi = -0.01097133
    weightedAverage(inlet) of U = (1.097133 0 0)
    weightedAverage(inlet) of p = 1.523

surfaceFieldValue outMax write:
    max(outlet) of U = (1.5993252 1.6625565e-06 0)
    max(outlet) of p = 0

Time = 19.5

Courant Number mean: 0.54860809 max: 0.79966265
DILUPBiCG:  Solving for Ux, Initial residual = 0.0010880036, Final residual = 5.1816657e-09, No Iterations 3
DILUPBiCG:  Solving for Uy, Initial residual = 0.0018089236, Final residual = 6.7390592e-09, No Iterations 3
GAMG:  Solving for p, Initial residual = 1.9025675e-06, Final residual = 2.950735e-07, No Iterations 1
GAMG:  Solving for p, Initial residual = 2.9507323e-07, Final residual = 2.9507323e-07, No Iterations 0
time step continuity errors : sum local = 3.0508107e-09, global = -6.8641859e-10, cumulative = 3.4274925e-07
ExecutionTime = 1.78 s  ClockTime = 2 s

fieldMinMax minmaxdomain write:
    min(U) = (0.33787056 0.00011388626 0) in cell 0 at location (0.05 -0.45 0.05)
    max(U) = (0.33787056 0.00011388626 0) in cell 0 at location (0.05 -0.45 0.05)
    min(p) = 0 in cell 99 at location (10 -0.45 0.05)
    max(p) = 1.523 in cell 0 at location (0 -0.45 0.05)

surfaceFieldValue inMassFlow write:
    sum(inlet) of phi = -0.10980571

surfaceFieldValue outMassFlow write:
    sum(outlet) of phi = 0.1098057

surfaceFieldValue inPre write:
    weightedAverage(inlet) of phi = -0.010980571
    weightedAverage(inlet) of U = (1.0980571 0 0)
    weightedAverage(inlet) of p = 1.523

surfaceFieldValue outMax write:
    max(outlet) of U = (1.6007514 1.6743802e-06 0)
    max(outlet) of p = 0

Time = 19.55

Courant Number mean: 0.54906999 max: 0.80037573
DILUPBiCG:  Solving for Ux, Initial residual = 0.0010818, Final residual = 5.2295052e-09, No Iterations 3
DILUPBiCG:  Solving for Uy, Initial residual = 0.0018110498, Final residual = 6.7625804e-09, No Iterations 3
GAMG:  Solving for p, Initial residual = 1.8968932e-06, Final residual = 2.9434167e-07, No Iterations 1
GAMG:  Solving for p, Initial residual = 2.943414e-07, Final residual = 2.943414e-07, No Iterations 0
time step continuity errors : sum local = 3.0428068e-09, global = -6.8238113e-10, cumulative = 3.4206687e-07
ExecutionTime = 1.78 s  ClockTime = 2 s

fieldMinMax minmaxdomain write:
    min(U) = (0.33807596 0.00011335204 0) in cell 0 at location (0.05 -0.45 0.05)
    max(U) = (0.33807596 0.00011335204 0) in cell 0 at location (0.05 -0.45 0.05)
    min(p) = 0 in cell 99 at location (10 -0.45 0.05)
    max(p) = 1.523 in cell 0 at location (0 -0.45 0.05)

surfaceFieldValue inMassFlow write:
    sum(inlet) of phi = -0.10989768

surfaceFieldValue outMassFlow write:
    sum(outlet) of phi = 0.10989767

surfaceFieldValue inPre write:
    weightedAverage(inlet) of phi = -0.010989768
    weightedAverage(inlet) of U = (1.0989768 0 0)
    weightedAverage(inlet) of p = 1.523

surfaceFieldValue outMax write:
    max(outlet) of U = (1.6021708 1.6860612e-06 0)
    max(outlet) of p = 0

Time = 19.6

Courant Number mean: 0.5495297 max: 0.80108541
DILUPBiCG:  Solving for Ux, Initial residual = 0.0010756383, Final residual = 5.2781972e-09, No Iterations 3
DILUPBiCG:  Solving for Uy, Initial residual = 0.0018131749, Final residual = 6.7860932e-09, No Iterations 3
GAMG:  Solving for p, Initial residual = 1.8912143e-06, Final residual = 2.9360675e-07, No Iterations 1
GAMG:  Solving for p, Initial residual = 2.9360648e-07, Final residual = 2.9360648e-07, No Iterations 0
time step continuity errors : sum local = 3.0347754e-09, global = -6.7836668e-10, cumulative = 3.413885e-07
ExecutionTime = 1.78 s  ClockTime = 2 s

fieldMinMax minmaxdomain write:
    min(U) = (0.33828033 0.00011282034 0) in cell 0 at location (0.05 -0.45 0.05)
    max(U) = (0.33828033 0.00011282034 0) in cell 0 at location (0.05 -0.45 0.05)
    min(p) = 0 in cell 99 at location (10 -0.45 0.05)
    max(p) = 1.523 in cell 0 at location (0 -0.45 0.05)

surfaceFieldValue inMassFlow write:
    sum(inlet) of phi = -0.10998921

surfaceFieldValue outMassFlow write:
    sum(outlet) of phi = 0.1099892

surfaceFieldValue inPre write:
    weightedAverage(inlet) of phi = -0.010998921
    weightedAverage(inlet) of U = (1.0998921 0 0)
    weightedAverage(inlet) of p = 1.523

surfaceFieldValue outMax write:
    max(outlet) of U = (1.6035834 1.6975996e-06 0)
    max(outlet) of p = 0

Time = 19.65

Courant Number mean: 0.54998722 max: 0.80179171
DILUPBiCG:  Solving for Ux, Initial residual = 0.0010695182, Final residual = 5.3277986e-09, No Iterations 3
DILUPBiCG:  Solving for Uy, Initial residual = 0.0018152997, Final residual = 6.8095715e-09, No Iterations 3
GAMG:  Solving for p, Initial residual = 1.8855303e-06, Final residual = 2.9286913e-07, No Iterations 1
GAMG:  Solving for p, Initial residual = 2.9286886e-07, Final residual = 2.9286886e-07, No Iterations 0
time step continuity errors : sum local = 3.0267205e-09, global = -6.743752e-10, cumulative = 3.4071413e-07
ExecutionTime = 1.78 s  ClockTime = 2 s

fieldMinMax minmaxdomain write:
    min(U) = (0.33848368 0.00011229113 0) in cell 0 at location (0.05 -0.45 0.05)
    max(U) = (0.33848368 0.00011229113 0) in cell 0 at location (0.05 -0.45 0.05)
    min(p) = 0 in cell 99 at location (10 -0.45 0.05)
    max(p) = 1.523 in cell 0 at location (0 -0.45 0.05)

surfaceFieldValue inMassFlow write:
    sum(inlet) of phi = -0.11008031

surfaceFieldValue outMassFlow write:
    sum(outlet) of phi = 0.1100803

surfaceFieldValue inPre write:
    weightedAverage(inlet) of phi = -0.011008031
    weightedAverage(inlet) of U = (1.1008031 0 0)
    weightedAverage(inlet) of p = 1.523

surfaceFieldValue outMax write:
    max(outlet) of U = (1.6049892 1.7089956e-06 0)
    max(outlet) of p = 0

Time = 19.7

Courant Number mean: 0.55044256 max: 0.80249465
DILUPBiCG:  Solving for Ux, Initial residual = 0.0010634391, Final residual = 5.378298e-09, No Iterations 3
DILUPBiCG:  Solving for Uy, Initial residual = 0.0018174175, Final residual = 6.8329974e-09, No Iterations 3
GAMG:  Solving for p, Initial residual = 1.8798434e-06, Final residual = 2.9212875e-07, No Iterations 1
GAMG:  Solving for p, Initial residual = 2.9212848e-07, Final residual = 2.9212848e-07, No Iterations 0
time step continuity errors : sum local = 3.0186414e-09, global = -6.7040662e-10, cumulative = 3.4004372e-07
ExecutionTime = 1.79 s  ClockTime = 2 s

fieldMinMax minmaxdomain write:
    min(U) = (0.33868603 0.00011176442 0) in cell 0 at location (0.05 -0.45 0.05)
    max(U) = (0.33868603 0.00011176442 0) in cell 0 at location (0.05 -0.45 0.05)
    min(p) = 0 in cell 99 at location (10 -0.45 0.05)
    max(p) = 1.523 in cell 0 at location (0 -0.45 0.05)

surfaceFieldValue inMassFlow write:
    sum(inlet) of phi = -0.11017098

surfaceFieldValue outMassFlow write:
    sum(outlet) of phi = 0.11017097

surfaceFieldValue inPre write:
    weightedAverage(inlet) of phi = -0.011017098
    weightedAverage(inlet) of U = (1.1017098 0 0)
    weightedAverage(inlet) of p = 1.523

surfaceFieldValue outMax write:
    max(outlet) of U = (1.6063884 1.7202493e-06 0)
    max(outlet) of p = 0

Time = 19.75

Courant Number mean: 0.55089574 max: 0.80319424
DILUPBiCG:  Solving for Ux, Initial residual = 0.0010574009, Final residual = 5.4297193e-09, No Iterations 3
DILUPBiCG:  Solving for Uy, Initial residual = 0.0018195342, Final residual = 6.8564086e-09, No Iterations 3
GAMG:  Solving for p, Initial residual = 1.8741533e-06, Final residual = 2.9138523e-07, No Iterations 1
GAMG:  Solving for p, Initial residual = 2.9138497e-07, Final residual = 2.9138497e-07, No Iterations 0
time step continuity errors : sum local = 3.0105343e-09, global = -6.6646089e-10, cumulative = 3.3937726e-07
ExecutionTime = 1.79 s  ClockTime = 2 s

fieldMinMax minmaxdomain write:
    min(U) = (0.33888736 0.00011124018 0) in cell 0 at location (0.05 -0.45 0.05)
    max(U) = (0.33888736 0.00011124018 0) in cell 0 at location (0.05 -0.45 0.05)
    min(p) = 0 in cell 99 at location (10 -0.45 0.05)
    max(p) = 1.523 in cell 0 at location (0 -0.45 0.05)

surfaceFieldValue inMassFlow write:
    sum(inlet) of phi = -0.11026121

surfaceFieldValue outMassFlow write:
    sum(outlet) of phi = 0.1102612

surfaceFieldValue inPre write:
    weightedAverage(inlet) of phi = -0.011026121
    weightedAverage(inlet) of U = (1.1026121 0 0)
    weightedAverage(inlet) of p = 1.523

surfaceFieldValue outMax write:
    max(outlet) of U = (1.6077809 1.7313609e-06 0)
    max(outlet) of p = 0

Time = 19.8

Courant Number mean: 0.55134677 max: 0.8038905
DILUPBiCG:  Solving for Ux, Initial residual = 0.0010514032, Final residual = 5.4820874e-09, No Iterations 3
DILUPBiCG:  Solving for Uy, Initial residual = 0.0018216492, Final residual = 6.8797847e-09, No Iterations 3
GAMG:  Solving for p, Initial residual = 1.8684599e-06, Final residual = 2.9063884e-07, No Iterations 1
GAMG:  Solving for p, Initial residual = 2.9063858e-07, Final residual = 2.9063858e-07, No Iterations 0
time step continuity errors : sum local = 3.0024018e-09, global = -6.6253795e-10, cumulative = 3.3871472e-07
ExecutionTime = 1.79 s  ClockTime = 2 s

fieldMinMax minmaxdomain write:
    min(U) = (0.3390877 0.0001107184 0) in cell 0 at location (0.05 -0.45 0.05)
    max(U) = (0.3390877 0.0001107184 0) in cell 0 at location (0.05 -0.45 0.05)
    min(p) = 0 in cell 99 at location (10 -0.45 0.05)
    max(p) = 1.523 in cell 0 at location (0 -0.45 0.05)

surfaceFieldValue inMassFlow write:
    sum(inlet) of phi = -0.11035102

surfaceFieldValue outMassFlow write:
    sum(outlet) of phi = 0.11035101

surfaceFieldValue inPre write:
    weightedAverage(inlet) of phi = -0.011035102
    weightedAverage(inlet) of U = (1.1035102 0 0)
    weightedAverage(inlet) of p = 1.523

surfaceFieldValue outMax write:
    max(outlet) of U = (1.6091668 1.7423304e-06 0)
    max(outlet) of p = 0

Time = 19.85

Courant Number mean: 0.55179565 max: 0.80458344
DILUPBiCG:  Solving for Ux, Initial residual = 0.0010454456, Final residual = 5.5354281e-09, No Iterations 3
DILUPBiCG:  Solving for Uy, Initial residual = 0.0018237575, Final residual = 6.9031095e-09, No Iterations 3
GAMG:  Solving for p, Initial residual = 1.8627651e-06, Final residual = 2.8989005e-07, No Iterations 1
GAMG:  Solving for p, Initial residual = 2.8988979e-07, Final residual = 2.8988979e-07, No Iterations 0
time step continuity errors : sum local = 2.9942488e-09, global = -6.5863776e-10, cumulative = 3.3805608e-07
ExecutionTime = 1.79 s  ClockTime = 2 s

fieldMinMax minmaxdomain write:
    min(U) = (0.33928704 0.00011019908 0) in cell 0 at location (0.05 -0.45 0.05)
    max(U) = (0.33928704 0.00011019908 0) in cell 0 at location (0.05 -0.45 0.05)
    min(p) = 0 in cell 99 at location (10 -0.45 0.05)
    max(p) = 1.523 in cell 0 at location (0 -0.45 0.05)

surfaceFieldValue inMassFlow write:
    sum(inlet) of phi = -0.1104404

surfaceFieldValue outMassFlow write:
    sum(outlet) of phi = 0.11044038

surfaceFieldValue inPre write:
    weightedAverage(inlet) of phi = -0.01104404
    weightedAverage(inlet) of U = (1.104404 0 0)
    weightedAverage(inlet) of p = 1.523

surfaceFieldValue outMax write:
    max(outlet) of U = (1.6105461 1.7531582e-06 0)
    max(outlet) of p = 0

Time = 19.9

Courant Number mean: 0.55224239 max: 0.80527309
DILUPBiCG:  Solving for Ux, Initial residual = 0.0010395278, Final residual = 5.5897683e-09, No Iterations 3
DILUPBiCG:  Solving for Uy, Initial residual = 0.0018258644, Final residual = 6.9264134e-09, No Iterations 3
GAMG:  Solving for p, Initial residual = 1.8570656e-06, Final residual = 2.8913942e-07, No Iterations 1
GAMG:  Solving for p, Initial residual = 2.8913917e-07, Final residual = 2.8913917e-07, No Iterations 0
time step continuity errors : sum local = 2.9860811e-09, global = -6.5476023e-10, cumulative = 3.3740132e-07
ExecutionTime = 1.79 s  ClockTime = 2 s

fieldMinMax minmaxdomain write:
    min(U) = (0.3394854 0.00010968221 0) in cell 0 at location (0.05 -0.45 0.05)
    max(U) = (0.3394854 0.00010968221 0) in cell 0 at location (0.05 -0.45 0.05)
    min(p) = 0 in cell 99 at location (10 -0.45 0.05)
    max(p) = 1.523 in cell 0 at location (0 -0.45 0.05)

surfaceFieldValue inMassFlow write:
    sum(inlet) of phi = -0.11052935

surfaceFieldValue outMassFlow write:
    sum(outlet) of phi = 0.11052934

surfaceFieldValue inPre write:
    weightedAverage(inlet) of phi = -0.011052935
    weightedAverage(inlet) of U = (1.1052935 0 0)
    weightedAverage(inlet) of p = 1.523

surfaceFieldValue outMax write:
    max(outlet) of U = (1.6119188 1.7638444e-06 0)
    max(outlet) of p = 0

Time = 19.95

Courant Number mean: 0.55268702 max: 0.80595945
DILUPBiCG:  Solving for Ux, Initial residual = 0.0010336495, Final residual = 5.6451359e-09, No Iterations 3
DILUPBiCG:  Solving for Uy, Initial residual = 0.001827969, Final residual = 6.9496824e-09, No Iterations 3
GAMG:  Solving for p, Initial residual = 1.8513633e-06, Final residual = 2.8838603e-07, No Iterations 1
GAMG:  Solving for p, Initial residual = 2.8838578e-07, Final residual = 2.8838578e-07, No Iterations 0
time step continuity errors : sum local = 2.9778891e-09, global = -6.5090532e-10, cumulative = 3.3675042e-07
ExecutionTime = 1.8 s  ClockTime = 2 s

fieldMinMax minmaxdomain write:
    min(U) = (0.33968277 0.00010916777 0) in cell 0 at location (0.05 -0.45 0.05)
    max(U) = (0.33968277 0.00010916777 0) in cell 0 at location (0.05 -0.45 0.05)
    min(p) = 0 in cell 99 at location (10 -0.45 0.05)
    max(p) = 1.523 in cell 0 at location (0 -0.45 0.05)

surfaceFieldValue inMassFlow write:
    sum(inlet) of phi = -0.11061788

surfaceFieldValue outMassFlow write:
    sum(outlet) of phi = 0.11061787

surfaceFieldValue inPre write:
    weightedAverage(inlet) of phi = -0.011061788
    weightedAverage(inlet) of U = (1.1061788 0 0)
    weightedAverage(inlet) of p = 1.523

surfaceFieldValue outMax write:
    max(outlet) of U = (1.613285 1.7743893e-06 0)
    max(outlet) of p = 0

Time = 20

Courant Number mean: 0.55312953 max: 0.80664255
DILUPBiCG:  Solving for Ux, Initial residual = 0.0010278103, Final residual = 5.70156e-09, No Iterations 3
DILUPBiCG:  Solving for Uy, Initial residual = 0.0018300669, Final residual = 6.9729015e-09, No Iterations 3
GAMG:  Solving for p, Initial residual = 1.8456581e-06, Final residual = 2.8763042e-07, No Iterations 1
GAMG:  Solving for p, Initial residual = 2.8763016e-07, Final residual = 2.8763016e-07, No Iterations 0
time step continuity errors : sum local = 2.9696785e-09, global = -6.4707292e-10, cumulative = 3.3610334e-07
ExecutionTime = 1.8 s  ClockTime = 2 s

fieldMinMax minmaxdomain write:
    min(U) = (0.33987916 0.00010865575 0) in cell 0 at location (0.05 -0.45 0.05)
    max(U) = (0.33987916 0.00010865575 0) in cell 0 at location (0.05 -0.45 0.05)
    min(p) = 0 in cell 99 at location (10 -0.45 0.05)
    max(p) = 1.523 in cell 0 at location (0 -0.45 0.05)

surfaceFieldValue inMassFlow write:
    sum(inlet) of phi = -0.11070599

surfaceFieldValue outMassFlow write:
    sum(outlet) of phi = 0.11070598

surfaceFieldValue inPre write:
    weightedAverage(inlet) of phi = -0.011070599
    weightedAverage(inlet) of U = (1.1070599 0 0)
    weightedAverage(inlet) of p = 1.523

surfaceFieldValue outMax write:
    max(outlet) of U = (1.6146447 1.7847931e-06 0)
    max(outlet) of p = 0

End

