/*---------------------------------------------------------------------------*\
| =========                 |                                                 |
| \\      /  F ield         | OpenFOAM: The Open Source CFD Toolbox           |
|  \\    /   O peration     | Version:  v1812                                 |
|   \\  /    A nd           | Web:      www.OpenFOAM.com                      |
|    \\/     M anipulation  |                                                 |
\*---------------------------------------------------------------------------*/
Build  : v1812 OPENFOAM=1812
Arch   : "LSB;label=32;scalar=64"
Exec   : icoFoam
Date   : Jul 25 2022
Time   : 14:05:36
Host   : DESKTOP-2P6APRA
PID    : 1937
I/O    : uncollated
Case   : /home/pedro/OpenFoam/Day5/laminar_pipe/case0
nProcs : 1
trapFpe: Floating point exception trapping enabled (FOAM_SIGFPE).
fileModificationChecking : Monitoring run-time modified files using timeStampMaster (fileModificationSkew 10)
allowSystemOperations : Allowing user-supplied system call operations

// * * * * * * * * * * * * * * * * * * * * * * * * * * * * * * * * * * * * * //
Create time

Create mesh for time = 0


PISO: Operating solver in PISO mode

Reading transportProperties

Reading field p

Reading field U

Reading/calculating face flux field phi


Starting time loop

surfaceFieldValue inMassFlow:
    operation     = sum
    total faces   = 10
    total area    = 0.1


surfaceFieldValue outMassFlow:
    operation     = sum
    total faces   = 10
    total area    = 0.1


surfaceFieldValue inPre:
    operation     = weightedAverage
    total faces   = 10
    total area    = 0.1
    weight field  = p


surfaceFieldValue outMax:
    operation     = max
    total faces   = 10
    total area    = 0.1


Time = 0.05

Courant Number mean: 0.0025 max: 0.25
DILUPBiCG:  Solving for Ux, Initial residual = 1, Final residual = 7.1360744e-09, No Iterations 3
DILUPBiCG:  Solving for Uy, Initial residual = 0, Final residual = 0, No Iterations 0
GAMG:  Solving for p, Initial residual = 1, Final residual = 0.0018972977, No Iterations 4
GAMG:  Solving for p, Initial residual = 9.0177214e-06, Final residual = 3.422826e-07, No Iterations 2
time step continuity errors : sum local = 3.6007542e-07, global = -4.6384481e-08, cumulative = -4.6384481e-08
ExecutionTime = 0.27 s  ClockTime = 1 s

fieldMinMax minmaxdomain write:
    min(U) = (0.83838689 0.010970905 0) in cell 0 at location (0.05 -0.45 0.05)
    max(U) = (0.83838689 0.010970905 0) in cell 0 at location (0.05 -0.45 0.05)
    min(p) = 0 in cell 99 at location (10 -0.45 0.05)
    max(p) = 240.0496 in cell 0 at location (0.05 -0.45 0.05)

surfaceFieldValue inMassFlow write:
    sum(inlet) of phi = -0.1

surfaceFieldValue outMassFlow write:
    sum(outlet) of phi = 0.099999072

surfaceFieldValue inPre write:
    weightedAverage(inlet) of phi = -0.01
    weightedAverage(inlet) of U = (1 0 0)
    weightedAverage(inlet) of p = 239.97884

surfaceFieldValue outMax write:
    max(outlet) of U = (1.0190734 0.00017559812 0)
    max(outlet) of p = 0

Time = 0.1

Courant Number mean: 0.50007886 max: 0.51118723
DILUPBiCG:  Solving for Ux, Initial residual = 0.98515947, Final residual = 3.5659821e-09, No Iterations 4
DILUPBiCG:  Solving for Uy, Initial residual = 0.34876465, Final residual = 7.812128e-09, No Iterations 4
GAMG:  Solving for p, Initial residual = 0.0070273479, Final residual = 6.9414114e-05, No Iterations 3
GAMG:  Solving for p, Initial residual = 0.00039545992, Final residual = 5.7243275e-07, No Iterations 4
time step continuity errors : sum local = 8.6992641e-08, global = 3.3742576e-09, cumulative = -4.3010223e-08
ExecutionTime = 0.29 s  ClockTime = 1 s

fieldMinMax minmaxdomain write:
    min(U) = (0.82023354 0.026501432 0) in cell 0 at location (0.05 -0.45 0.05)
    max(U) = (0.82023354 0.026501432 0) in cell 0 at location (0.05 -0.45 0.05)
    min(p) = -40.295857 in cell 402 at location (0.25 -0.05 0.05)
    max(p) = 0 in cell 99 at location (10 -0.45 0.05)

surfaceFieldValue inMassFlow write:
    sum(inlet) of phi = -0.1

surfaceFieldValue outMassFlow write:
    sum(outlet) of phi = 0.10000007

surfaceFieldValue inPre write:
    weightedAverage(inlet) of phi = -0.01
    weightedAverage(inlet) of U = (1 -0 -0)
    weightedAverage(inlet) of p = -39.867388

surfaceFieldValue outMax write:
    max(outlet) of U = (1.0909425 0.0016297017 0)
    max(outlet) of p = 0

Time = 0.15

Courant Number mean: 0.50038761 max: 0.52951096
DILUPBiCG:  Solving for Ux, Initial residual = 0.76971656, Final residual = 3.5647312e-09, No Iterations 4
DILUPBiCG:  Solving for Uy, Initial residual = 0.30279404, Final residual = 7.1583051e-09, No Iterations 4
GAMG:  Solving for p, Initial residual = 0.019219567, Final residual = 0.00014063069, No Iterations 3
GAMG:  Solving for p, Initial residual = 0.00050249623, Final residual = 8.1364304e-07, No Iterations 4
time step continuity errors : sum local = 3.4502869e-08, global = 1.1978163e-09, cumulative = -4.1812407e-08
ExecutionTime = 0.29 s  ClockTime = 1 s

fieldMinMax minmaxdomain write:
    min(U) = (0.85947167 0.031610939 0) in cell 0 at location (0.05 -0.45 0.05)
    max(U) = (0.85947167 0.031610939 0) in cell 0 at location (0.05 -0.45 0.05)
    min(p) = 0 in cell 99 at location (10 -0.45 0.05)
    max(p) = 11.322666 in cell 0 at location (0.05 -0.45 0.05)

surfaceFieldValue inMassFlow write:
    sum(inlet) of phi = -0.1

surfaceFieldValue outMassFlow write:
    sum(outlet) of phi = 0.10000002

surfaceFieldValue inPre write:
    weightedAverage(inlet) of phi = -0.01
    weightedAverage(inlet) of U = (1 0 0)
    weightedAverage(inlet) of p = 11.189601

surfaceFieldValue outMax write:
    max(outlet) of U = (1.0706961 0.00029789702 0)
    max(outlet) of p = 0

Time = 0.2

Courant Number mean: 0.50050365 max: 0.54090044
DILUPBiCG:  Solving for Ux, Initial residual = 0.21405092, Final residual = 1.7058868e-09, No Iterations 4
DILUPBiCG:  Solving for Uy, Initial residual = 0.11749765, Final residual = 6.4814881e-09, No Iterations 4
GAMG:  Solving for p, Initial residual = 0.021551363, Final residual = 0.00015907668, No Iterations 3
GAMG:  Solving for p, Initial residual = 0.0010855076, Final residual = 1.8810462e-07, No Iterations 5
time step continuity errors : sum local = 1.1691838e-09, global = 1.1479906e-10, cumulative = -4.1697608e-08
ExecutionTime = 0.3 s  ClockTime = 1 s

fieldMinMax minmaxdomain write:
    min(U) = (0.88833492 0.034450716 0) in cell 0 at location (0.05 -0.45 0.05)
    max(U) = (0.88833492 0.034450716 0) in cell 0 at location (0.05 -0.45 0.05)
    min(p) = 0 in cell 99 at location (10 -0.45 0.05)
    max(p) = 1.8682599 in cell 900 at location (0.05 0.45 0.05)

surfaceFieldValue inMassFlow write:
    sum(inlet) of phi = -0.1

surfaceFieldValue outMassFlow write:
    sum(outlet) of phi = 0.1

surfaceFieldValue inPre write:
    weightedAverage(inlet) of phi = -0.01
    weightedAverage(inlet) of U = (1 0 0)
    weightedAverage(inlet) of p = 1.7387263

surfaceFieldValue outMax write:
    max(outlet) of U = (1.0851601 0.00015333011 0)
    max(outlet) of p = 0

Time = 0.25

Courant Number mean: 0.50064409 max: 0.54873149
DILUPBiCG:  Solving for Ux, Initial residual = 0.073555649, Final residual = 9.6794704e-10, No Iterations 4
DILUPBiCG:  Solving for Uy, Initial residual = 0.10618959, Final residual = 3.0180353e-09, No Iterations 4
GAMG:  Solving for p, Initial residual = 0.032593331, Final residual = 0.0002242281, No Iterations 3
GAMG:  Solving for p, Initial residual = 0.00011461284, Final residual = 7.0317665e-07, No Iterations 3
time step continuity errors : sum local = 8.386186e-09, global = -9.8538209e-10, cumulative = -4.268299e-08
ExecutionTime = 0.3 s  ClockTime = 1 s

fieldMinMax minmaxdomain write:
    min(U) = (0.90453348 0.035962934 0) in cell 0 at location (0.05 -0.45 0.05)
    max(U) = (0.90453348 0.035962934 0) in cell 0 at location (0.05 -0.45 0.05)
    min(p) = 0 in cell 99 at location (10 -0.45 0.05)
    max(p) = 3.3467042 in cell 0 at location (0.05 -0.45 0.05)

surfaceFieldValue inMassFlow write:
    sum(inlet) of phi = -0.1

surfaceFieldValue outMassFlow write:
    sum(outlet) of phi = 0.09999998

surfaceFieldValue inPre write:
    weightedAverage(inlet) of phi = -0.01
    weightedAverage(inlet) of U = (1 0 0)
    weightedAverage(inlet) of p = 3.212898

surfaceFieldValue outMax write:
    max(outlet) of U = (1.0938049 0.00039437763 0)
    max(outlet) of p = 0

Time = 0.3

Courant Number mean: 0.50077081 max: 0.55457223
DILUPBiCG:  Solving for Ux, Initial residual = 0.066354957, Final residual = 7.8616604e-10, No Iterations 4
DILUPBiCG:  Solving for Uy, Initial residual = 0.077123597, Final residual = 3.4678437e-09, No Iterations 4
GAMG:  Solving for p, Initial residual = 0.006826519, Final residual = 5.4824662e-05, No Iterations 3
GAMG:  Solving for p, Initial residual = 6.4616289e-05, Final residual = 4.0585108e-07, No Iterations 3
time step continuity errors : sum local = 4.0915941e-09, global = 4.7740866e-10, cumulative = -4.2205581e-08
ExecutionTime = 0.3 s  ClockTime = 1 s

fieldMinMax minmaxdomain write:
    min(U) = (0.91345566 0.036654535 0) in cell 0 at location (0.05 -0.45 0.05)
    max(U) = (0.91345566 0.036654535 0) in cell 0 at location (0.05 -0.45 0.05)
    min(p) = 0 in cell 99 at location (10 -0.45 0.05)
    max(p) = 2.8953309 in cell 900 at location (0.05 0.45 0.05)

surfaceFieldValue inMassFlow write:
    sum(inlet) of phi = -0.1

surfaceFieldValue outMassFlow write:
    sum(outlet) of phi = 0.10000001

surfaceFieldValue inPre write:
    weightedAverage(inlet) of phi = -0.01
    weightedAverage(inlet) of U = (1 0 0)
    weightedAverage(inlet) of p = 2.7596996

surfaceFieldValue outMax write:
    max(outlet) of U = (1.1038276 0.00062392102 0)
    max(outlet) of p = 0

Time = 0.35

Courant Number mean: 0.50088836 max: 0.55884525
DILUPBiCG:  Solving for Ux, Initial residual = 0.051825008, Final residual = 6.3369055e-10, No Iterations 4
DILUPBiCG:  Solving for Uy, Initial residual = 0.062552406, Final residual = 1.9473294e-09, No Iterations 4
GAMG:  Solving for p, Initial residual = 0.0057387482, Final residual = 1.0009505e-05, No Iterations 3
GAMG:  Solving for p, Initial residual = 1.0288574e-05, Final residual = 3.7481901e-07, No Iterations 2
time step continuity errors : sum local = 3.6641567e-09, global = 5.2657038e-10, cumulative = -4.1679011e-08
ExecutionTime = 0.3 s  ClockTime = 1 s

fieldMinMax minmaxdomain write:
    min(U) = (0.91820243 0.036879375 0) in cell 0 at location (0.05 -0.45 0.05)
    max(U) = (0.91820243 0.036879375 0) in cell 0 at location (0.05 -0.45 0.05)
    min(p) = 0 in cell 99 at location (10 -0.45 0.05)
    max(p) = 2.8197594 in cell 0 at location (0.05 -0.45 0.05)

surfaceFieldValue inMassFlow write:
    sum(inlet) of phi = -0.1

surfaceFieldValue outMassFlow write:
    sum(outlet) of phi = 0.10000001

surfaceFieldValue inPre write:
    weightedAverage(inlet) of phi = -0.01
    weightedAverage(inlet) of U = (1 0 0)
    weightedAverage(inlet) of p = 2.682686

surfaceFieldValue outMax write:
    max(outlet) of U = (1.1140355 0.00081953518 0)
    max(outlet) of p = 0

Time = 0.4

Courant Number mean: 0.50099653 max: 0.56203088
DILUPBiCG:  Solving for Ux, Initial residual = 0.04405498, Final residual = 5.4505379e-10, No Iterations 4
DILUPBiCG:  Solving for Uy, Initial residual = 0.052209331, Final residual = 1.5911185e-09, No Iterations 4
GAMG:  Solving for p, Initial residual = 0.0042430977, Final residual = 1.1327025e-05, No Iterations 3
GAMG:  Solving for p, Initial residual = 1.1899385e-05, Final residual = 3.4523624e-07, No Iterations 2
time step continuity errors : sum local = 3.2090537e-09, global = 2.9099506e-10, cumulative = -4.1388016e-08
ExecutionTime = 0.32 s  ClockTime = 1 s

fieldMinMax minmaxdomain write:
    min(U) = (0.92047778 0.036862843 0) in cell 0 at location (0.05 -0.45 0.05)
    max(U) = (0.92047778 0.036862843 0) in cell 0 at location (0.05 -0.45 0.05)
    min(p) = 0 in cell 99 at location (10 -0.45 0.05)
    max(p) = 2.6974528 in cell 900 at location (0.05 0.45 0.05)

surfaceFieldValue inMassFlow write:
    sum(inlet) of phi = -0.1

surfaceFieldValue outMassFlow write:
    sum(outlet) of phi = 0.10000001

surfaceFieldValue inPre write:
    weightedAverage(inlet) of phi = -0.01
    weightedAverage(inlet) of U = (1 0 0)
    weightedAverage(inlet) of p = 2.5592847

surfaceFieldValue outMax write:
    max(outlet) of U = (1.124446 0.00094101009 0)
    max(outlet) of p = 0

Time = 0.45

Courant Number mean: 0.50109661 max: 0.56776408
DILUPBiCG:  Solving for Ux, Initial residual = 0.037972489, Final residual = 4.6992135e-10, No Iterations 4
DILUPBiCG:  Solving for Uy, Initial residual = 0.044360168, Final residual = 1.3419559e-09, No Iterations 4
GAMG:  Solving for p, Initial residual = 0.003457222, Final residual = 9.7822171e-06, No Iterations 3
GAMG:  Solving for p, Initial residual = 1.0190631e-05, Final residual = 2.9584625e-07, No Iterations 2
time step continuity errors : sum local = 2.6367582e-09, global = 2.6973028e-10, cumulative = -4.1118286e-08
ExecutionTime = 0.32 s  ClockTime = 1 s

fieldMinMax minmaxdomain write:
    min(U) = (0.92134008 0.036733061 0) in cell 0 at location (0.05 -0.45 0.05)
    max(U) = (0.92134008 0.036733061 0) in cell 0 at location (0.05 -0.45 0.05)
    min(p) = 0 in cell 99 at location (10 -0.45 0.05)
    max(p) = 2.6010844 in cell 900 at location (0.05 0.45 0.05)

surfaceFieldValue inMassFlow write:
    sum(inlet) of phi = -0.1

surfaceFieldValue outMassFlow write:
    sum(outlet) of phi = 0.10000001

surfaceFieldValue inPre write:
    weightedAverage(inlet) of phi = -0.01
    weightedAverage(inlet) of U = (1 0 0)
    weightedAverage(inlet) of p = 2.4620589

surfaceFieldValue outMax write:
    max(outlet) of U = (1.1348892 0.00098594359 0)
    max(outlet) of p = 0

Time = 0.5

Courant Number mean: 0.50118928 max: 0.57325272
DILUPBiCG:  Solving for Ux, Initial residual = 0.03322745, Final residual = 4.3618589e-10, No Iterations 4
DILUPBiCG:  Solving for Uy, Initial residual = 0.03832073, Final residual = 1.1717945e-09, No Iterations 4
GAMG:  Solving for p, Initial residual = 0.0027621115, Final residual = 1.0163231e-05, No Iterations 3
GAMG:  Solving for p, Initial residual = 1.0565835e-05, Final residual = 3.2576855e-07, No Iterations 2
time step continuity errors : sum local = 2.7899119e-09, global = 2.3819885e-10, cumulative = -4.0880087e-08
ExecutionTime = 0.32 s  ClockTime = 1 s

fieldMinMax minmaxdomain write:
    min(U) = (0.92144389 0.036561596 0) in cell 0 at location (0.05 -0.45 0.05)
    max(U) = (0.92144389 0.036561596 0) in cell 0 at location (0.05 -0.45 0.05)
    min(p) = 0 in cell 99 at location (10 -0.45 0.05)
    max(p) = 2.5148194 in cell 900 at location (0.05 0.45 0.05)

surfaceFieldValue inMassFlow write:
    sum(inlet) of phi = -0.1

surfaceFieldValue outMassFlow write:
    sum(outlet) of phi = 0.1

surfaceFieldValue inPre write:
    weightedAverage(inlet) of phi = -0.01
    weightedAverage(inlet) of U = (1 0 0)
    weightedAverage(inlet) of p = 2.3751582

surfaceFieldValue outMax write:
    max(outlet) of U = (1.145281 0.00096510108 0)
    max(outlet) of p = 0

Time = 0.55

Courant Number mean: 0.5012754 max: 0.57798304
DILUPBiCG:  Solving for Ux, Initial residual = 0.029419884, Final residual = 4.0285372e-10, No Iterations 4
DILUPBiCG:  Solving for Uy, Initial residual = 0.033382467, Final residual = 1.0401295e-09, No Iterations 4
GAMG:  Solving for p, Initial residual = 0.0023321655, Final residual = 9.3545656e-06, No Iterations 3
GAMG:  Solving for p, Initial residual = 9.6947466e-06, Final residual = 3.0488066e-07, No Iterations 2
time step continuity errors : sum local = 2.5172818e-09, global = 2.0336485e-10, cumulative = -4.0676722e-08
ExecutionTime = 0.33 s  ClockTime = 1 s

fieldMinMax minmaxdomain write:
    min(U) = (0.92117994 0.036387408 0) in cell 0 at location (0.05 -0.45 0.05)
    max(U) = (0.92117994 0.036387408 0) in cell 0 at location (0.05 -0.45 0.05)
    min(p) = 0 in cell 99 at location (10 -0.45 0.05)
    max(p) = 2.439173 in cell 900 at location (0.05 0.45 0.05)

surfaceFieldValue inMassFlow write:
    sum(inlet) of phi = -0.1

surfaceFieldValue outMassFlow write:
    sum(outlet) of phi = 0.1

surfaceFieldValue inPre write:
    weightedAverage(inlet) of phi = -0.01
    weightedAverage(inlet) of U = (1 0 0)
    weightedAverage(inlet) of p = 2.2990525

surfaceFieldValue outMax write:
    max(outlet) of U = (1.1555465 0.00089420398 0)
    max(outlet) of p = 0

Time = 0.6

Courant Number mean: 0.50135574 max: 0.58197771
DILUPBiCG:  Solving for Ux, Initial residual = 0.026278364, Final residual = 3.7611167e-10, No Iterations 4
DILUPBiCG:  Solving for Uy, Initial residual = 0.029374046, Final residual = 9.2602648e-10, No Iterations 4
GAMG:  Solving for p, Initial residual = 0.0022947571, Final residual = 8.3938515e-06, No Iterations 3
GAMG:  Solving for p, Initial residual = 8.6766961e-06, Final residual = 2.7722718e-07, No Iterations 2
time step continuity errors : sum local = 2.2126374e-09, global = 1.8386604e-10, cumulative = -4.0492856e-08
ExecutionTime = 0.33 s  ClockTime = 1 s

fieldMinMax minmaxdomain write:
    min(U) = (0.92077341 0.036230005 0) in cell 0 at location (0.05 -0.45 0.05)
    max(U) = (0.92077341 0.036230005 0) in cell 0 at location (0.05 -0.45 0.05)
    min(p) = 0 in cell 99 at location (10 -0.45 0.05)
    max(p) = 2.3721895 in cell 900 at location (0.05 0.45 0.05)

surfaceFieldValue inMassFlow write:
    sum(inlet) of phi = -0.1

surfaceFieldValue outMassFlow write:
    sum(outlet) of phi = 0.1

surfaceFieldValue inPre write:
    weightedAverage(inlet) of phi = -0.01
    weightedAverage(inlet) of U = (1 0 0)
    weightedAverage(inlet) of p = 2.2317469

surfaceFieldValue outMax write:
    max(outlet) of U = (1.1656293 0.00079069477 0)
    max(outlet) of p = 0

Time = 0.65

Courant Number mean: 0.5014308 max: 0.5855137
DILUPBiCG:  Solving for Ux, Initial residual = 0.023622821, Final residual = 3.6821785e-10, No Iterations 4
DILUPBiCG:  Solving for Uy, Initial residual = 0.026065173, Final residual = 8.2869325e-10, No Iterations 4
GAMG:  Solving for p, Initial residual = 0.0022150426, Final residual = 7.4493247e-06, No Iterations 3
GAMG:  Solving for p, Initial residual = 7.680467e-06, Final residual = 2.468394e-07, No Iterations 2
time step continuity errors : sum local = 1.9097604e-09, global = 1.6995504e-10, cumulative = -4.0322901e-08
ExecutionTime = 0.33 s  ClockTime = 1 s

fieldMinMax minmaxdomain write:
    min(U) = (0.92034715 0.036097585 0) in cell 0 at location (0.05 -0.45 0.05)
    max(U) = (0.92034715 0.036097585 0) in cell 0 at location (0.05 -0.45 0.05)
    min(p) = 0 in cell 99 at location (10 -0.45 0.05)
    max(p) = 2.312692 in cell 900 at location (0.05 0.45 0.05)

surfaceFieldValue inMassFlow write:
    sum(inlet) of phi = -0.1

surfaceFieldValue outMassFlow write:
    sum(outlet) of phi = 0.1

surfaceFieldValue inPre write:
    weightedAverage(inlet) of phi = -0.01
    weightedAverage(inlet) of U = (1 0 0)
    weightedAverage(inlet) of p = 2.1720313

surfaceFieldValue outMax write:
    max(outlet) of U = (1.1754879 0.00067085448 0)
    max(outlet) of p = 0

Time = 0.7

Courant Number mean: 0.50150108 max: 0.58919063
DILUPBiCG:  Solving for Ux, Initial residual = 0.021351895, Final residual = 3.5657099e-10, No Iterations 4
DILUPBiCG:  Solving for Uy, Initial residual = 0.023276575, Final residual = 7.5016462e-10, No Iterations 4
GAMG:  Solving for p, Initial residual = 0.0020390312, Final residual = 6.6907968e-06, No Iterations 3
GAMG:  Solving for p, Initial residual = 6.8809606e-06, Final residual = 2.2423982e-07, No Iterations 2
time step continuity errors : sum local = 1.6866108e-09, global = 1.5934527e-10, cumulative = -4.0163555e-08
ExecutionTime = 0.33 s  ClockTime = 1 s

fieldMinMax minmaxdomain write:
    min(U) = (0.91996179 0.035992032 0) in cell 0 at location (0.05 -0.45 0.05)
    max(U) = (0.91996179 0.035992032 0) in cell 0 at location (0.05 -0.45 0.05)
    min(p) = 0 in cell 99 at location (10 -0.45 0.05)
    max(p) = 2.2596296 in cell 900 at location (0.05 0.45 0.05)

surfaceFieldValue inMassFlow write:
    sum(inlet) of phi = -0.1

surfaceFieldValue outMassFlow write:
    sum(outlet) of phi = 0.1

surfaceFieldValue inPre write:
    weightedAverage(inlet) of phi = -0.01
    weightedAverage(inlet) of U = (1 0 0)
    weightedAverage(inlet) of p = 2.1188281

surfaceFieldValue outMax write:
    max(outlet) of U = (1.1850936 0.00054816492 0)
    max(outlet) of p = 0

Time = 0.75

Courant Number mean: 0.50156707 max: 0.59278102
DILUPBiCG:  Solving for Ux, Initial residual = 0.019395335, Final residual = 3.382004e-10, No Iterations 4
DILUPBiCG:  Solving for Uy, Initial residual = 0.020915431, Final residual = 6.7732784e-10, No Iterations 4
GAMG:  Solving for p, Initial residual = 0.0018107552, Final residual = 6.2738688e-06, No Iterations 3
GAMG:  Solving for p, Initial residual = 6.4397073e-06, Final residual = 2.1610472e-07, No Iterations 2
time step continuity errors : sum local = 1.5831163e-09, global = 1.5347349e-10, cumulative = -4.0010082e-08
ExecutionTime = 0.35 s  ClockTime = 1 s

fieldMinMax minmaxdomain write:
    min(U) = (0.91964156 0.035911885 0) in cell 0 at location (0.05 -0.45 0.05)
    max(U) = (0.91964156 0.035911885 0) in cell 0 at location (0.05 -0.45 0.05)
    min(p) = 0 in cell 99 at location (10 -0.45 0.05)
    max(p) = 2.21214 in cell 900 at location (0.05 0.45 0.05)

surfaceFieldValue inMassFlow write:
    sum(inlet) of phi = -0.1

surfaceFieldValue outMassFlow write:
    sum(outlet) of phi = 0.1

surfaceFieldValue inPre write:
    weightedAverage(inlet) of phi = -0.01
    weightedAverage(inlet) of U = (1 0 0)
    weightedAverage(inlet) of p = 2.0712532

surfaceFieldValue outMax write:
    max(outlet) of U = (1.194428 0.00043224059 0)
    max(outlet) of p = 0

Time = 0.8

Courant Number mean: 0.5016291 max: 0.59746055
DILUPBiCG:  Solving for Ux, Initial residual = 0.017618921, Final residual = 3.0811094e-10, No Iterations 4
DILUPBiCG:  Solving for Uy, Initial residual = 0.018901612, Final residual = 6.1209018e-10, No Iterations 4
GAMG:  Solving for p, Initial residual = 0.0015685355, Final residual = 6.0666957e-06, No Iterations 3
GAMG:  Solving for p, Initial residual = 6.2159954e-06, Final residual = 2.1888906e-07, No Iterations 2
time step continuity errors : sum local = 1.5644613e-09, global = 1.4929173e-10, cumulative = -3.986079e-08
ExecutionTime = 0.35 s  ClockTime = 1 s

fieldMinMax minmaxdomain write:
    min(U) = (0.91939061 0.035854055 0) in cell 0 at location (0.05 -0.45 0.05)
    max(U) = (0.91939061 0.035854055 0) in cell 0 at location (0.05 -0.45 0.05)
    min(p) = 0 in cell 99 at location (10 -0.45 0.05)
    max(p) = 2.1694977 in cell 900 at location (0.05 0.45 0.05)

surfaceFieldValue inMassFlow write:
    sum(inlet) of phi = -0.1

surfaceFieldValue outMassFlow write:
    sum(outlet) of phi = 0.1

surfaceFieldValue inPre write:
    weightedAverage(inlet) of phi = -0.01
    weightedAverage(inlet) of U = (1 0 0)
    weightedAverage(inlet) of p = 2.0285648

surfaceFieldValue outMax write:
    max(outlet) of U = (1.203482 0.00032930956 0)
    max(outlet) of p = 0

Time = 0.85

Courant Number mean: 0.50168736 max: 0.60197547
DILUPBiCG:  Solving for Ux, Initial residual = 0.015973539, Final residual = 2.6156537e-10, No Iterations 4
DILUPBiCG:  Solving for Uy, Initial residual = 0.017152901, Final residual = 5.5523944e-10, No Iterations 4
GAMG:  Solving for p, Initial residual = 0.0013552115, Final residual = 5.8567041e-06, No Iterations 3
GAMG:  Solving for p, Initial residual = 5.9902461e-06, Final residual = 2.2304941e-07, No Iterations 2
time step continuity errors : sum local = 1.5582418e-09, global = 1.4395571e-10, cumulative = -3.9716835e-08
ExecutionTime = 0.35 s  ClockTime = 1 s

fieldMinMax minmaxdomain write:
    min(U) = (0.919203 0.035814824 0) in cell 0 at location (0.05 -0.45 0.05)
    max(U) = (0.919203 0.035814824 0) in cell 0 at location (0.05 -0.45 0.05)
    min(p) = 0 in cell 99 at location (10 -0.45 0.05)
    max(p) = 2.131093 in cell 900 at location (0.05 0.45 0.05)

surfaceFieldValue inMassFlow write:
    sum(inlet) of phi = -0.1

surfaceFieldValue outMassFlow write:
    sum(outlet) of phi = 0.1

surfaceFieldValue inPre write:
    weightedAverage(inlet) of phi = -0.01
    weightedAverage(inlet) of U = (1 0 0)
    weightedAverage(inlet) of p = 1.9901406

surfaceFieldValue outMax write:
    max(outlet) of U = (1.2122531 0.00024291231 0)
    max(outlet) of p = 0

Time = 0.9

Courant Number mean: 0.50174229 max: 0.60634282
DILUPBiCG:  Solving for Ux, Initial residual = 0.014518542, Final residual = 2.0574501e-10, No Iterations 4
DILUPBiCG:  Solving for Uy, Initial residual = 0.015632895, Final residual = 5.0374688e-10, No Iterations 4
GAMG:  Solving for p, Initial residual = 0.0011825397, Final residual = 5.666403e-06, No Iterations 3
GAMG:  Solving for p, Initial residual = 5.786677e-06, Final residual = 2.2470132e-07, No Iterations 2
time step continuity errors : sum local = 1.536743e-09, global = 1.3301727e-10, cumulative = -3.9583817e-08
ExecutionTime = 0.36 s  ClockTime = 1 s

fieldMinMax minmaxdomain write:
    min(U) = (0.91906864 0.035790438 0) in cell 0 at location (0.05 -0.45 0.05)
    max(U) = (0.91906864 0.035790438 0) in cell 0 at location (0.05 -0.45 0.05)
    min(p) = 0 in cell 99 at location (10 -0.45 0.05)
    max(p) = 2.0964055 in cell 0 at location (0.05 -0.45 0.05)

surfaceFieldValue inMassFlow write:
    sum(inlet) of phi = -0.1

surfaceFieldValue outMassFlow write:
    sum(outlet) of phi = 0.1

surfaceFieldValue inPre write:
    weightedAverage(inlet) of phi = -0.01
    weightedAverage(inlet) of U = (1 0 0)
    weightedAverage(inlet) of p = 1.9554508

surfaceFieldValue outMax write:
    max(outlet) of U = (1.2207438 0.00018304747 0)
    max(outlet) of p = 0

Time = 0.95

Courant Number mean: 0.50179391 max: 0.61056104
DILUPBiCG:  Solving for Ux, Initial residual = 0.013244654, Final residual = 1.8593917e-10, No Iterations 4
DILUPBiCG:  Solving for Uy, Initial residual = 0.014332121, Final residual = 4.5906532e-10, No Iterations 4
GAMG:  Solving for p, Initial residual = 0.0010325291, Final residual = 5.393938e-06, No Iterations 3
GAMG:  Solving for p, Initial residual = 5.5004198e-06, Final residual = 2.1678324e-07, No Iterations 2
time step continuity errors : sum local = 1.4535623e-09, global = 1.1766462e-10, cumulative = -3.9466153e-08
ExecutionTime = 0.36 s  ClockTime = 1 s

fieldMinMax minmaxdomain write:
    min(U) = (0.91897659 0.035777406 0) in cell 0 at location (0.05 -0.45 0.05)
    max(U) = (0.91897659 0.035777406 0) in cell 0 at location (0.05 -0.45 0.05)
    min(p) = 0 in cell 99 at location (10 -0.45 0.05)
    max(p) = 2.064992 in cell 900 at location (0.05 0.45 0.05)

surfaceFieldValue inMassFlow write:
    sum(inlet) of phi = -0.1

surfaceFieldValue outMassFlow write:
    sum(outlet) of phi = 0.1

surfaceFieldValue inPre write:
    weightedAverage(inlet) of phi = -0.01
    weightedAverage(inlet) of U = (1 0 0)
    weightedAverage(inlet) of p = 1.9240456

surfaceFieldValue outMax write:
    max(outlet) of U = (1.2289599 0.00014067911 0)
    max(outlet) of p = 0

Time = 1

Courant Number mean: 0.50184287 max: 0.61464034
DILUPBiCG:  Solving for Ux, Initial residual = 0.012120851, Final residual = 1.6449119e-10, No Iterations 4
DILUPBiCG:  Solving for Uy, Initial residual = 0.013178805, Final residual = 4.1864592e-10, No Iterations 4
GAMG:  Solving for p, Initial residual = 0.00093402497, Final residual = 5.0427374e-06, No Iterations 3
GAMG:  Solving for p, Initial residual = 5.13539e-06, Final residual = 9.8347012e-07, No Iterations 1
time step continuity errors : sum local = 6.4741826e-09, global = 5.4880152e-10, cumulative = -3.8917351e-08
ExecutionTime = 0.36 s  ClockTime = 1 s

fieldMinMax minmaxdomain write:
    min(U) = (0.91891687 0.035772649 0) in cell 0 at location (0.05 -0.45 0.05)
    max(U) = (0.91891687 0.035772649 0) in cell 0 at location (0.05 -0.45 0.05)
    min(p) = 0 in cell 99 at location (10 -0.45 0.05)
    max(p) = 2.0364947 in cell 900 at location (0.05 0.45 0.05)

surfaceFieldValue inMassFlow write:
    sum(inlet) of phi = -0.1

surfaceFieldValue outMassFlow write:
    sum(outlet) of phi = 0.10000001

surfaceFieldValue inPre write:
    weightedAverage(inlet) of phi = -0.01
    weightedAverage(inlet) of U = (1 0 0)
    weightedAverage(inlet) of p = 1.8955623

surfaceFieldValue outMax write:
    max(outlet) of U = (1.2369099 0.00010616597 0)
    max(outlet) of p = 0

Time = 1.05

Courant Number mean: 0.50188907 max: 0.61858938
DILUPBiCG:  Solving for Ux, Initial residual = 0.01112564, Final residual = 1.5556218e-10, No Iterations 4
DILUPBiCG:  Solving for Uy, Initial residual = 0.012157262, Final residual = 3.8425943e-10, No Iterations 4
GAMG:  Solving for p, Initial residual = 0.00086638461, Final residual = 4.5980928e-06, No Iterations 3
GAMG:  Solving for p, Initial residual = 4.6766469e-06, Final residual = 8.2254497e-07, No Iterations 1
time step continuity errors : sum local = 5.3235221e-09, global = 4.6494338e-10, cumulative = -3.8452408e-08
ExecutionTime = 0.36 s  ClockTime = 1 s

fieldMinMax minmaxdomain write:
    min(U) = (0.91888066 0.03577359 0) in cell 0 at location (0.05 -0.45 0.05)
    max(U) = (0.91888066 0.03577359 0) in cell 0 at location (0.05 -0.45 0.05)
    min(p) = 0 in cell 99 at location (10 -0.45 0.05)
    max(p) = 2.0105155 in cell 0 at location (0.05 -0.45 0.05)

surfaceFieldValue inMassFlow write:
    sum(inlet) of phi = -0.1

surfaceFieldValue outMassFlow write:
    sum(outlet) of phi = 0.10000001

surfaceFieldValue inPre write:
    weightedAverage(inlet) of phi = -0.01
    weightedAverage(inlet) of U = (1 0 0)
    weightedAverage(inlet) of p = 1.869601

surfaceFieldValue outMax write:
    max(outlet) of U = (1.2446026 7.8789606e-05 0)
    max(outlet) of p = 0

Time = 1.1

Courant Number mean: 0.50193248 max: 0.62241101
DILUPBiCG:  Solving for Ux, Initial residual = 0.010239157, Final residual = 1.4483291e-10, No Iterations 4
DILUPBiCG:  Solving for Uy, Initial residual = 0.011251038, Final residual = 3.5463074e-10, No Iterations 4
GAMG:  Solving for p, Initial residual = 0.00078624522, Final residual = 4.0516485e-06, No Iterations 3
GAMG:  Solving for p, Initial residual = 4.1161319e-06, Final residual = 6.6674123e-07, No Iterations 1
time step continuity errors : sum local = 4.2474291e-09, global = 3.7134406e-10, cumulative = -3.8081064e-08
ExecutionTime = 0.36 s  ClockTime = 1 s

fieldMinMax minmaxdomain write:
    min(U) = (0.91886132 0.035778115 0) in cell 0 at location (0.05 -0.45 0.05)
    max(U) = (0.91886132 0.035778115 0) in cell 0 at location (0.05 -0.45 0.05)
    min(p) = 0 in cell 99 at location (10 -0.45 0.05)
    max(p) = 1.9868536 in cell 900 at location (0.05 0.45 0.05)

surfaceFieldValue inMassFlow write:
    sum(inlet) of phi = -0.1

surfaceFieldValue outMassFlow write:
    sum(outlet) of phi = 0.10000001

surfaceFieldValue inPre write:
    weightedAverage(inlet) of phi = -0.01
    weightedAverage(inlet) of U = (1 0 0)
    weightedAverage(inlet) of p = 1.845958

surfaceFieldValue outMax write:
    max(outlet) of U = (1.2520484 5.7601317e-05 0)
    max(outlet) of p = 0

Time = 1.15

Courant Number mean: 0.50197375 max: 0.62611208
DILUPBiCG:  Solving for Ux, Initial residual = 0.0094470746, Final residual = 1.3483597e-10, No Iterations 4
DILUPBiCG:  Solving for Uy, Initial residual = 0.010426974, Final residual = 3.2583075e-10, No Iterations 4
GAMG:  Solving for p, Initial residual = 0.00069731516, Final residual = 3.4877189e-06, No Iterations 3
GAMG:  Solving for p, Initial residual = 3.5395603e-06, Final residual = 5.321418e-07, No Iterations 1
time step continuity errors : sum local = 3.3403061e-09, global = 2.8572115e-10, cumulative = -3.7795343e-08
ExecutionTime = 0.38 s  ClockTime = 1 s

fieldMinMax minmaxdomain write:
    min(U) = (0.91885351 0.035784592 0) in cell 0 at location (0.05 -0.45 0.05)
    max(U) = (0.91885351 0.035784592 0) in cell 0 at location (0.05 -0.45 0.05)
    min(p) = 0 in cell 99 at location (10 -0.45 0.05)
    max(p) = 1.9652261 in cell 900 at location (0.05 0.45 0.05)

surfaceFieldValue inMassFlow write:
    sum(inlet) of phi = -0.1

surfaceFieldValue outMassFlow write:
    sum(outlet) of phi = 0.10000001

surfaceFieldValue inPre write:
    weightedAverage(inlet) of phi = -0.01
    weightedAverage(inlet) of U = (1 0 0)
    weightedAverage(inlet) of p = 1.8243497

surfaceFieldValue outMax write:
    max(outlet) of U = (1.2592571 4.1564734e-05 0)
    max(outlet) of p = 0

Time = 1.2

Courant Number mean: 0.50201279 max: 0.62969994
DILUPBiCG:  Solving for Ux, Initial residual = 0.0087362039, Final residual = 1.2961295e-10, No Iterations 4
DILUPBiCG:  Solving for Uy, Initial residual = 0.0096978906, Final residual = 3.0057286e-10, No Iterations 4
GAMG:  Solving for p, Initial residual = 0.00061781192, Final residual = 2.9482576e-06, No Iterations 3
GAMG:  Solving for p, Initial residual = 2.9891095e-06, Final residual = 4.3061631e-07, No Iterations 1
time step continuity errors : sum local = 2.6662127e-09, global = 2.1370823e-10, cumulative = -3.7581634e-08
ExecutionTime = 0.38 s  ClockTime = 1 s

fieldMinMax minmaxdomain write:
    min(U) = (0.91885323 0.035791807 0) in cell 0 at location (0.05 -0.45 0.05)
    max(U) = (0.91885323 0.035791807 0) in cell 0 at location (0.05 -0.45 0.05)
    min(p) = 0 in cell 99 at location (10 -0.45 0.05)
    max(p) = 1.9454253 in cell 900 at location (0.05 0.45 0.05)

surfaceFieldValue inMassFlow write:
    sum(inlet) of phi = -0.1

surfaceFieldValue outMassFlow write:
    sum(outlet) of phi = 0.1

surfaceFieldValue inPre write:
    weightedAverage(inlet) of phi = -0.01
    weightedAverage(inlet) of U = (1 0 0)
    weightedAverage(inlet) of p = 1.8045681

surfaceFieldValue outMax write:
    max(outlet) of U = (1.2662382 2.96573e-05 0)
    max(outlet) of p = 0

Time = 1.25

Courant Number mean: 0.50204981 max: 0.63317457
DILUPBiCG:  Solving for Ux, Initial residual = 0.0080956136, Final residual = 1.2769166e-10, No Iterations 4
DILUPBiCG:  Solving for Uy, Initial residual = 0.0090334284, Final residual = 2.7711955e-10, No Iterations 4
GAMG:  Solving for p, Initial residual = 0.00054174433, Final residual = 2.4950389e-06, No Iterations 3
GAMG:  Solving for p, Initial residual = 2.5273174e-06, Final residual = 3.5036569e-07, No Iterations 1
time step continuity errors : sum local = 2.1418156e-09, global = 1.5400898e-10, cumulative = -3.7427625e-08
ExecutionTime = 0.38 s  ClockTime = 1 s

fieldMinMax minmaxdomain write:
    min(U) = (0.91885755 0.03579891 0) in cell 0 at location (0.05 -0.45 0.05)
    max(U) = (0.91885755 0.03579891 0) in cell 0 at location (0.05 -0.45 0.05)
    min(p) = 0 in cell 99 at location (10 -0.45 0.05)
    max(p) = 1.9272623 in cell 900 at location (0.05 0.45 0.05)

surfaceFieldValue inMassFlow write:
    sum(inlet) of phi = -0.1

surfaceFieldValue outMassFlow write:
    sum(outlet) of phi = 0.1

surfaceFieldValue inPre write:
    weightedAverage(inlet) of phi = -0.01
    weightedAverage(inlet) of U = (1 0 0)
    weightedAverage(inlet) of p = 1.7864239

surfaceFieldValue outMax write:
    max(outlet) of U = (1.2730005 2.096053e-05 0)
    max(outlet) of p = 0

Time = 1.3

Courant Number mean: 0.50208504 max: 0.63654276
DILUPBiCG:  Solving for Ux, Initial residual = 0.0075166917, Final residual = 1.2707111e-10, No Iterations 4
DILUPBiCG:  Solving for Uy, Initial residual = 0.008437366, Final residual = 2.5489229e-10, No Iterations 4
GAMG:  Solving for p, Initial residual = 0.00048870306, Final residual = 2.1337459e-06, No Iterations 3
GAMG:  Solving for p, Initial residual = 2.1595959e-06, Final residual = 2.9203484e-07, No Iterations 1
time step continuity errors : sum local = 1.7640372e-09, global = 1.101156e-10, cumulative = -3.731751e-08
ExecutionTime = 0.38 s  ClockTime = 1 s

fieldMinMax minmaxdomain write:
    min(U) = (0.91886437 0.035805359 0) in cell 0 at location (0.05 -0.45 0.05)
    max(U) = (0.91886437 0.035805359 0) in cell 0 at location (0.05 -0.45 0.05)
    min(p) = 0 in cell 99 at location (10 -0.45 0.05)
    max(p) = 1.9105722 in cell 900 at location (0.05 0.45 0.05)

surfaceFieldValue inMassFlow write:
    sum(inlet) of phi = -0.1

surfaceFieldValue outMassFlow write:
    sum(outlet) of phi = 0.1

surfaceFieldValue inPre write:
    weightedAverage(inlet) of phi = -0.01
    weightedAverage(inlet) of U = (1 0 0)
    weightedAverage(inlet) of p = 1.7697523

surfaceFieldValue outMax write:
    max(outlet) of U = (1.2795523 1.4684492e-05 0)
    max(outlet) of p = 0

Time = 1.35

Courant Number mean: 0.50211854 max: 0.63980985
DILUPBiCG:  Solving for Ux, Initial residual = 0.0069951587, Final residual = 1.2754835e-10, No Iterations 4
DILUPBiCG:  Solving for Uy, Initial residual = 0.0078979814, Final residual = 2.3366791e-10, No Iterations 4
GAMG:  Solving for p, Initial residual = 0.00044077217, Final residual = 1.858123e-06, No Iterations 3
GAMG:  Solving for p, Initial residual = 1.8792284e-06, Final residual = 2.5371969e-07, No Iterations 1
time step continuity errors : sum local = 1.5155355e-09, global = 8.3858387e-11, cumulative = -3.7233651e-08
ExecutionTime = 0.38 s  ClockTime = 1 s

fieldMinMax minmaxdomain write:
    min(U) = (0.91887221 0.035810851 0) in cell 0 at location (0.05 -0.45 0.05)
    max(U) = (0.91887221 0.035810851 0) in cell 0 at location (0.05 -0.45 0.05)
    min(p) = 0 in cell 99 at location (10 -0.45 0.05)
    max(p) = 1.8952095 in cell 900 at location (0.05 0.45 0.05)

surfaceFieldValue inMassFlow write:
    sum(inlet) of phi = -0.1

surfaceFieldValue outMassFlow write:
    sum(outlet) of phi = 0.1

surfaceFieldValue inPre write:
    weightedAverage(inlet) of phi = -0.01
    weightedAverage(inlet) of U = (1 0 0)
    weightedAverage(inlet) of p = 1.7544079

surfaceFieldValue outMax write:
    max(outlet) of U = (1.285901 1.0175664e-05 0)
    max(outlet) of p = 0

Time = 1.4

Courant Number mean: 0.50215051 max: 0.64297613
DILUPBiCG:  Solving for Ux, Initial residual = 0.0065957419, Final residual = 1.3133842e-10, No Iterations 4
DILUPBiCG:  Solving for Uy, Initial residual = 0.0074081683, Final residual = 2.1443902e-10, No Iterations 4
GAMG:  Solving for p, Initial residual = 0.00039708977, Final residual = 1.6292661e-06, No Iterations 3
GAMG:  Solving for p, Initial residual = 1.6465938e-06, Final residual = 2.2423774e-07, No Iterations 1
time step continuity errors : sum local = 1.3255053e-09, global = 6.9091771e-11, cumulative = -3.716456e-08
ExecutionTime = 0.38 s  ClockTime = 1 s

fieldMinMax minmaxdomain write:
    min(U) = (0.91888011 0.035815268 0) in cell 0 at location (0.05 -0.45 0.05)
    max(U) = (0.91888011 0.035815268 0) in cell 0 at location (0.05 -0.45 0.05)
    min(p) = 0 in cell 99 at location (10 -0.45 0.05)
    max(p) = 1.8810453 in cell 900 at location (0.05 0.45 0.05)

surfaceFieldValue inMassFlow write:
    sum(inlet) of phi = -0.1

surfaceFieldValue outMassFlow write:
    sum(outlet) of phi = 0.1

surfaceFieldValue inPre write:
    weightedAverage(inlet) of phi = -0.01
    weightedAverage(inlet) of U = (1 0 0)
    weightedAverage(inlet) of p = 1.7402618

surfaceFieldValue outMax write:
    max(outlet) of U = (1.2920534 7.4394661e-06 0)
    max(outlet) of p = 0

Time = 1.45

Courant Number mean: 0.50218097 max: 0.64604555
DILUPBiCG:  Solving for Ux, Initial residual = 0.0062283505, Final residual = 1.3640196e-10, No Iterations 4
DILUPBiCG:  Solving for Uy, Initial residual = 0.0069622507, Final residual = 1.9757454e-10, No Iterations 4
GAMG:  Solving for p, Initial residual = 0.00036636922, Final residual = 1.4204607e-06, No Iterations 3
GAMG:  Solving for p, Initial residual = 1.4346393e-06, Final residual = 1.9803949e-07, No Iterations 1
time step continuity errors : sum local = 1.1592308e-09, global = 5.4645233e-11, cumulative = -3.7109914e-08
ExecutionTime = 0.38 s  ClockTime = 1 s

fieldMinMax minmaxdomain write:
    min(U) = (0.91888742 0.035818621 0) in cell 0 at location (0.05 -0.45 0.05)
    max(U) = (0.91888742 0.035818621 0) in cell 0 at location (0.05 -0.45 0.05)
    min(p) = 0 in cell 99 at location (10 -0.45 0.05)
    max(p) = 1.8679656 in cell 900 at location (0.05 0.45 0.05)

surfaceFieldValue inMassFlow write:
    sum(inlet) of phi = -0.1

surfaceFieldValue outMassFlow write:
    sum(outlet) of phi = 0.1

surfaceFieldValue inPre write:
    weightedAverage(inlet) of phi = -0.01
    weightedAverage(inlet) of U = (1 0 0)
    weightedAverage(inlet) of p = 1.7272

surfaceFieldValue outMax write:
    max(outlet) of U = (1.2980158 5.6351331e-06 0)
    max(outlet) of p = 0

Time = 1.5

Courant Number mean: 0.50221016 max: 0.64902122
DILUPBiCG:  Solving for Ux, Initial residual = 0.005888117, Final residual = 1.4185711e-10, No Iterations 4
DILUPBiCG:  Solving for Uy, Initial residual = 0.0065566272, Final residual = 1.8478333e-10, No Iterations 4
GAMG:  Solving for p, Initial residual = 0.00033784943, Final residual = 1.2456899e-06, No Iterations 3
GAMG:  Solving for p, Initial residual = 1.2573662e-06, Final residual = 1.7881556e-07, No Iterations 1
time step continuity errors : sum local = 1.0371336e-09, global = 5.0437022e-11, cumulative = -3.7059477e-08
ExecutionTime = 0.38 s  ClockTime = 1 s

fieldMinMax minmaxdomain write:
    min(U) = (0.91889379 0.035821005 0) in cell 0 at location (0.05 -0.45 0.05)
    max(U) = (0.91889379 0.035821005 0) in cell 0 at location (0.05 -0.45 0.05)
    min(p) = 0 in cell 99 at location (10 -0.45 0.05)
    max(p) = 1.8558691 in cell 900 at location (0.05 0.45 0.05)

surfaceFieldValue inMassFlow write:
    sum(inlet) of phi = -0.1

surfaceFieldValue outMassFlow write:
    sum(outlet) of phi = 0.1

surfaceFieldValue inPre write:
    weightedAverage(inlet) of phi = -0.01
    weightedAverage(inlet) of U = (1 0 0)
    weightedAverage(inlet) of p = 1.7151213

surfaceFieldValue outMax write:
    max(outlet) of U = (1.3037939 4.0060651e-06 0)
    max(outlet) of p = 0

Time = 1.55

Courant Number mean: 0.50223807 max: 0.65190596
DILUPBiCG:  Solving for Ux, Initial residual = 0.0055719235, Final residual = 1.4772966e-10, No Iterations 4
DILUPBiCG:  Solving for Uy, Initial residual = 0.0061807921, Final residual = 1.7452646e-10, No Iterations 4
GAMG:  Solving for p, Initial residual = 0.00030829186, Final residual = 1.1258945e-06, No Iterations 3
GAMG:  Solving for p, Initial residual = 1.1358351e-06, Final residual = 1.5840542e-07, No Iterations 1
time step continuity errors : sum local = 9.1083687e-10, global = 4.5483567e-11, cumulative = -3.7013994e-08
ExecutionTime = 0.39 s  ClockTime = 1 s

fieldMinMax minmaxdomain write:
    min(U) = (0.91889905 0.035822564 0) in cell 0 at location (0.05 -0.45 0.05)
    max(U) = (0.91889905 0.035822564 0) in cell 0 at location (0.05 -0.45 0.05)
    min(p) = 0 in cell 99 at location (10 -0.45 0.05)
    max(p) = 1.8446656 in cell 900 at location (0.05 0.45 0.05)

surfaceFieldValue inMassFlow write:
    sum(inlet) of phi = -0.1

surfaceFieldValue outMassFlow write:
    sum(outlet) of phi = 0.1

surfaceFieldValue inPre write:
    weightedAverage(inlet) of phi = -0.01
    weightedAverage(inlet) of U = (1 0 0)
    weightedAverage(inlet) of p = 1.7039353

surfaceFieldValue outMax write:
    max(outlet) of U = (1.3093931 2.5930707e-06 0)
    max(outlet) of p = 0

Time = 1.6

Courant Number mean: 0.50226482 max: 0.6547026
DILUPBiCG:  Solving for Ux, Initial residual = 0.0052773327, Final residual = 1.5406016e-10, No Iterations 4
DILUPBiCG:  Solving for Uy, Initial residual = 0.0058391904, Final residual = 1.6497428e-10, No Iterations 4
GAMG:  Solving for p, Initial residual = 0.00027964943, Final residual = 1.025207e-06, No Iterations 3
GAMG:  Solving for p, Initial residual = 1.033734e-06, Final residual = 1.4233658e-07, No Iterations 1
time step continuity errors : sum local = 8.1179608e-10, global = 4.2333291e-11, cumulative = -3.697166e-08
ExecutionTime = 0.39 s  ClockTime = 1 s

fieldMinMax minmaxdomain write:
    min(U) = (0.91890318 0.035823461 0) in cell 0 at location (0.05 -0.45 0.05)
    max(U) = (0.91890318 0.035823461 0) in cell 0 at location (0.05 -0.45 0.05)
    min(p) = 0 in cell 99 at location (10 -0.45 0.05)
    max(p) = 1.8342749 in cell 900 at location (0.05 0.45 0.05)

surfaceFieldValue inMassFlow write:
    sum(inlet) of phi = -0.1

surfaceFieldValue outMassFlow write:
    sum(outlet) of phi = 0.1

surfaceFieldValue inPre write:
    weightedAverage(inlet) of phi = -0.01
    weightedAverage(inlet) of U = (1 0 0)
    weightedAverage(inlet) of p = 1.6935619

surfaceFieldValue outMax write:
    max(outlet) of U = (1.3148184 1.3199984e-06 0)
    max(outlet) of p = 0

Time = 1.65

Courant Number mean: 0.50229048 max: 0.65741271
DILUPBiCG:  Solving for Ux, Initial residual = 0.0050021582, Final residual = 1.6085033e-10, No Iterations 4
DILUPBiCG:  Solving for Uy, Initial residual = 0.0055241469, Final residual = 1.565512e-10, No Iterations 4
GAMG:  Solving for p, Initial residual = 0.00025351148, Final residual = 9.4349364e-07, No Iterations 3
GAMG:  Solving for p, Initial residual = 9.5089387e-07, Final residual = 9.5089387e-07, No Iterations 0
time step continuity errors : sum local = 5.3817615e-09, global = 3.7242795e-10, cumulative = -3.6599232e-08
ExecutionTime = 0.39 s  ClockTime = 1 s

fieldMinMax minmaxdomain write:
    min(U) = (0.91890629 0.03582385 0) in cell 0 at location (0.05 -0.45 0.05)
    max(U) = (0.91890629 0.03582385 0) in cell 0 at location (0.05 -0.45 0.05)
    min(p) = 0 in cell 99 at location (10 -0.45 0.05)
    max(p) = 1.8246328 in cell 900 at location (0.05 0.45 0.05)

surfaceFieldValue inMassFlow write:
    sum(inlet) of phi = -0.1

surfaceFieldValue outMassFlow write:
    sum(outlet) of phi = 0.10000001

surfaceFieldValue inPre write:
    weightedAverage(inlet) of phi = -0.01
    weightedAverage(inlet) of U = (1 0 0)
    weightedAverage(inlet) of p = 1.6839366

surfaceFieldValue outMax write:
    max(outlet) of U = (1.3200748 1.5818555e-06 0)
    max(outlet) of p = 0

Time = 1.7

Courant Number mean: 0.50231514 max: 0.66003879
DILUPBiCG:  Solving for Ux, Initial residual = 0.0047446848, Final residual = 1.6836954e-10, No Iterations 4
DILUPBiCG:  Solving for Uy, Initial residual = 0.0052300398, Final residual = 1.4855009e-10, No Iterations 4
GAMG:  Solving for p, Initial residual = 0.00023594296, Final residual = 8.4181634e-07, No Iterations 3
GAMG:  Solving for p, Initial residual = 8.48053e-07, Final residual = 8.48053e-07, No Iterations 0
time step continuity errors : sum local = 4.765055e-09, global = 3.3680066e-10, cumulative = -3.6262432e-08
ExecutionTime = 0.39 s  ClockTime = 1 s

fieldMinMax minmaxdomain write:
    min(U) = (0.91890838 0.035823897 0) in cell 0 at location (0.05 -0.45 0.05)
    max(U) = (0.91890838 0.035823897 0) in cell 0 at location (0.05 -0.45 0.05)
    min(p) = 0 in cell 99 at location (10 -0.45 0.05)
    max(p) = 1.8156496 in cell 900 at location (0.05 0.45 0.05)

surfaceFieldValue inMassFlow write:
    sum(inlet) of phi = -0.1

surfaceFieldValue outMassFlow write:
    sum(outlet) of phi = 0.10000001

surfaceFieldValue inPre write:
    weightedAverage(inlet) of phi = -0.01
    weightedAverage(inlet) of U = (1 0 0)
    weightedAverage(inlet) of p = 1.6749703

surfaceFieldValue outMax write:
    max(outlet) of U = (1.3251667 2.4575783e-06 0)
    max(outlet) of p = 0

Time = 1.75

Courant Number mean: 0.50233881 max: 0.66258303
DILUPBiCG:  Solving for Ux, Initial residual = 0.0045033459, Final residual = 1.7748305e-10, No Iterations 4
DILUPBiCG:  Solving for Uy, Initial residual = 0.0049568637, Final residual = 1.4124991e-10, No Iterations 4
GAMG:  Solving for p, Initial residual = 0.00021909137, Final residual = 7.7142287e-07, No Iterations 3
GAMG:  Solving for p, Initial residual = 7.7681866e-07, Final residual = 7.7681866e-07, No Iterations 0
time step continuity errors : sum local = 4.3350195e-09, global = 3.1810929e-10, cumulative = -3.5944323e-08
ExecutionTime = 0.4 s  ClockTime = 1 s

fieldMinMax minmaxdomain write:
    min(U) = (0.91890972 0.035823716 0) in cell 0 at location (0.05 -0.45 0.05)
    max(U) = (0.91890972 0.035823716 0) in cell 0 at location (0.05 -0.45 0.05)
    min(p) = 0 in cell 99 at location (10 -0.45 0.05)
    max(p) = 1.8072973 in cell 900 at location (0.05 0.45 0.05)

surfaceFieldValue inMassFlow write:
    sum(inlet) of phi = -0.1

surfaceFieldValue outMassFlow write:
    sum(outlet) of phi = 0.10000001

surfaceFieldValue inPre write:
    weightedAverage(inlet) of phi = -0.01
    weightedAverage(inlet) of U = (1 0 0)
    weightedAverage(inlet) of p = 1.6666342

surfaceFieldValue outMax write:
    max(outlet) of U = (1.3300986 3.2008642e-06 0)
    max(outlet) of p = 0

Time = 1.8

Courant Number mean: 0.50236154 max: 0.66504763
DILUPBiCG:  Solving for Ux, Initial residual = 0.00427674, Final residual = 1.8802137e-10, No Iterations 4
DILUPBiCG:  Solving for Uy, Initial residual = 0.0047023023, Final residual = 1.3411257e-10, No Iterations 4
GAMG:  Solving for p, Initial residual = 0.00020444702, Final residual = 7.0810973e-07, No Iterations 3
GAMG:  Solving for p, Initial residual = 7.1279573e-07, Final residual = 7.1279573e-07, No Iterations 0
time step continuity errors : sum local = 3.9520441e-09, global = 2.9909823e-10, cumulative = -3.5645224e-08
ExecutionTime = 0.4 s  ClockTime = 1 s

fieldMinMax minmaxdomain write:
    min(U) = (0.91891046 0.035823408 0) in cell 0 at location (0.05 -0.45 0.05)
    max(U) = (0.91891046 0.035823408 0) in cell 0 at location (0.05 -0.45 0.05)
    min(p) = 0 in cell 99 at location (10 -0.45 0.05)
    max(p) = 1.7995096 in cell 900 at location (0.05 0.45 0.05)

surfaceFieldValue inMassFlow write:
    sum(inlet) of phi = -0.1

surfaceFieldValue outMassFlow write:
    sum(outlet) of phi = 0.10000001

surfaceFieldValue inPre write:
    weightedAverage(inlet) of phi = -0.01
    weightedAverage(inlet) of U = (1 0 0)
    weightedAverage(inlet) of p = 1.6588623

surfaceFieldValue outMax write:
    max(outlet) of U = (1.3348749 3.8202245e-06 0)
    max(outlet) of p = 0

Time = 1.85

Courant Number mean: 0.50238337 max: 0.66743487
DILUPBiCG:  Solving for Ux, Initial residual = 0.0040636945, Final residual = 2.0031891e-10, No Iterations 4
DILUPBiCG:  Solving for Uy, Initial residual = 0.0044653154, Final residual = 9.5752796e-09, No Iterations 3
GAMG:  Solving for p, Initial residual = 0.00019036599, Final residual = 6.4619261e-07, No Iterations 3
GAMG:  Solving for p, Initial residual = 6.5023934e-07, Final residual = 6.5023934e-07, No Iterations 0
time step continuity errors : sum local = 3.5831536e-09, global = 2.7926729e-10, cumulative = -3.5365957e-08
ExecutionTime = 0.4 s  ClockTime = 1 s

fieldMinMax minmaxdomain write:
    min(U) = (0.91891074 0.035823052 0) in cell 0 at location (0.05 -0.45 0.05)
    max(U) = (0.91891074 0.035823052 0) in cell 0 at location (0.05 -0.45 0.05)
    min(p) = 0 in cell 99 at location (10 -0.45 0.05)
    max(p) = 1.792243 in cell 900 at location (0.05 0.45 0.05)

surfaceFieldValue inMassFlow write:
    sum(inlet) of phi = -0.1

surfaceFieldValue outMassFlow write:
    sum(outlet) of phi = 0.10000001

surfaceFieldValue inPre write:
    weightedAverage(inlet) of phi = -0.01
    weightedAverage(inlet) of U = (1 0 0)
    weightedAverage(inlet) of p = 1.6516109

surfaceFieldValue outMax write:
    max(outlet) of U = (1.3394997 4.3109548e-06 0)
    max(outlet) of p = 0

Time = 1.9

Courant Number mean: 0.50240432 max: 0.66974744
DILUPBiCG:  Solving for Ux, Initial residual = 0.0038631452, Final residual = 2.154867e-10, No Iterations 4
DILUPBiCG:  Solving for Uy, Initial residual = 0.0042438876, Final residual = 9.150412e-09, No Iterations 3
GAMG:  Solving for p, Initial residual = 0.00017897112, Final residual = 5.8796627e-07, No Iterations 3
GAMG:  Solving for p, Initial residual = 5.9145312e-07, Final residual = 5.9145312e-07, No Iterations 0
time step continuity errors : sum local = 3.2403255e-09, global = 2.6261456e-10, cumulative = -3.5103342e-08
ExecutionTime = 0.4 s  ClockTime = 1 s

fieldMinMax minmaxdomain write:
    min(U) = (0.91891071 0.035822698 0) in cell 0 at location (0.05 -0.45 0.05)
    max(U) = (0.91891071 0.035822698 0) in cell 0 at location (0.05 -0.45 0.05)
    min(p) = 0 in cell 99 at location (10 -0.45 0.05)
    max(p) = 1.785455 in cell 900 at location (0.05 0.45 0.05)

surfaceFieldValue inMassFlow write:
    sum(inlet) of phi = -0.1

surfaceFieldValue outMassFlow write:
    sum(outlet) of phi = 0.10000001

surfaceFieldValue inPre write:
    weightedAverage(inlet) of phi = -0.01
    weightedAverage(inlet) of U = (1 0 0)
    weightedAverage(inlet) of p = 1.6448376

surfaceFieldValue outMax write:
    max(outlet) of U = (1.3439772 4.6748228e-06 0)
    max(outlet) of p = 0

Time = 1.95

Courant Number mean: 0.50242445 max: 0.67198631
DILUPBiCG:  Solving for Ux, Initial residual = 0.0036741542, Final residual = 2.4377415e-10, No Iterations 4
DILUPBiCG:  Solving for Uy, Initial residual = 0.0040372633, Final residual = 8.7425853e-09, No Iterations 3
GAMG:  Solving for p, Initial residual = 0.00016788583, Final residual = 5.4171524e-07, No Iterations 3
GAMG:  Solving for p, Initial residual = 5.4475834e-07, Final residual = 5.4475834e-07, No Iterations 0
time step continuity errors : sum local = 2.9681222e-09, global = 2.4596036e-10, cumulative = -3.4857382e-08
ExecutionTime = 0.42 s  ClockTime = 1 s

fieldMinMax minmaxdomain write:
    min(U) = (0.91891049 0.035822381 0) in cell 0 at location (0.05 -0.45 0.05)
    max(U) = (0.91891049 0.035822381 0) in cell 0 at location (0.05 -0.45 0.05)
    min(p) = 0 in cell 99 at location (10 -0.45 0.05)
    max(p) = 1.7791079 in cell 900 at location (0.05 0.45 0.05)

surfaceFieldValue inMassFlow write:
    sum(inlet) of phi = -0.1

surfaceFieldValue outMassFlow write:
    sum(outlet) of phi = 0.1

surfaceFieldValue inPre write:
    weightedAverage(inlet) of phi = -0.01
    weightedAverage(inlet) of U = (1 0 0)
    weightedAverage(inlet) of p = 1.6385045

surfaceFieldValue outMax write:
    max(outlet) of U = (1.3483114 4.9252328e-06 0)
    max(outlet) of p = 0

Time = 2

Courant Number mean: 0.50244378 max: 0.6741535
DILUPBiCG:  Solving for Ux, Initial residual = 0.0034958642, Final residual = 2.8838088e-10, No Iterations 4
DILUPBiCG:  Solving for Uy, Initial residual = 0.0038438632, Final residual = 8.3675775e-09, No Iterations 3
GAMG:  Solving for p, Initial residual = 0.00015768143, Final residual = 4.9970849e-07, No Iterations 3
GAMG:  Solving for p, Initial residual = 5.02369e-07, Final residual = 5.02369e-07, No Iterations 0
time step continuity errors : sum local = 2.7229244e-09, global = 2.2745815e-10, cumulative = -3.4629924e-08
ExecutionTime = 0.44 s  ClockTime = 1 s

fieldMinMax minmaxdomain write:
    min(U) = (0.91891016 0.035822119 0) in cell 0 at location (0.05 -0.45 0.05)
    max(U) = (0.91891016 0.035822119 0) in cell 0 at location (0.05 -0.45 0.05)
    min(p) = 0 in cell 99 at location (10 -0.45 0.05)
    max(p) = 1.7731673 in cell 900 at location (0.05 0.45 0.05)

surfaceFieldValue inMassFlow write:
    sum(inlet) of phi = -0.1

surfaceFieldValue outMassFlow write:
    sum(outlet) of phi = 0.1

surfaceFieldValue inPre write:
    weightedAverage(inlet) of phi = -0.01
    weightedAverage(inlet) of U = (1 0 0)
    weightedAverage(inlet) of p = 1.6325774

surfaceFieldValue outMax write:
    max(outlet) of U = (1.3525062 5.0772618e-06 0)
    max(outlet) of p = 0

Time = 2.05

Courant Number mean: 0.50246234 max: 0.676251
DILUPBiCG:  Solving for Ux, Initial residual = 0.0033274933, Final residual = 3.4353327e-10, No Iterations 4
DILUPBiCG:  Solving for Uy, Initial residual = 0.0036624621, Final residual = 8.0122896e-09, No Iterations 3
GAMG:  Solving for p, Initial residual = 0.00014815132, Final residual = 4.5779847e-07, No Iterations 3
GAMG:  Solving for p, Initial residual = 4.6011071e-07, Final residual = 4.6011071e-07, No Iterations 0
time step continuity errors : sum local = 2.4815662e-09, global = 2.1592525e-10, cumulative = -3.4413999e-08
ExecutionTime = 0.44 s  ClockTime = 1 s

fieldMinMax minmaxdomain write:
    min(U) = (0.9189098 0.035821918 0) in cell 0 at location (0.05 -0.45 0.05)
    max(U) = (0.9189098 0.035821918 0) in cell 0 at location (0.05 -0.45 0.05)
    min(p) = 0 in cell 99 at location (10 -0.45 0.05)
    max(p) = 1.7676023 in cell 0 at location (0.05 -0.45 0.05)

surfaceFieldValue inMassFlow write:
    sum(inlet) of phi = -0.1

surfaceFieldValue outMassFlow write:
    sum(outlet) of phi = 0.1

surfaceFieldValue inPre write:
    weightedAverage(inlet) of phi = -0.01
    weightedAverage(inlet) of U = (1 0 0)
    weightedAverage(inlet) of p = 1.6270253

surfaceFieldValue outMax write:
    max(outlet) of U = (1.3565656 5.1479045e-06 0)
    max(outlet) of p = 0

Time = 2.1

Courant Number mean: 0.50248017 max: 0.67828074
DILUPBiCG:  Solving for Ux, Initial residual = 0.0031683528, Final residual = 9.9510638e-09, No Iterations 3
DILUPBiCG:  Solving for Uy, Initial residual = 0.0034921039, Final residual = 7.6684567e-09, No Iterations 3
GAMG:  Solving for p, Initial residual = 0.00014090141, Final residual = 4.177622e-07, No Iterations 3
GAMG:  Solving for p, Initial residual = 4.1976495e-07, Final residual = 4.1976495e-07, No Iterations 0
time step continuity errors : sum local = 2.253354e-09, global = 2.0352801e-10, cumulative = -3.4210471e-08
ExecutionTime = 0.44 s  ClockTime = 1 s

fieldMinMax minmaxdomain write:
    min(U) = (0.91890945 0.035821775 0) in cell 0 at location (0.05 -0.45 0.05)
    max(U) = (0.91890945 0.035821775 0) in cell 0 at location (0.05 -0.45 0.05)
    min(p) = 0 in cell 99 at location (10 -0.45 0.05)
    max(p) = 1.7623847 in cell 0 at location (0.05 -0.45 0.05)

surfaceFieldValue inMassFlow write:
    sum(inlet) of phi = -0.1

surfaceFieldValue outMassFlow write:
    sum(outlet) of phi = 0.1

surfaceFieldValue inPre write:
    weightedAverage(inlet) of phi = -0.01
    weightedAverage(inlet) of U = (1 0 0)
    weightedAverage(inlet) of p = 1.6218199

surfaceFieldValue outMax write:
    max(outlet) of U = (1.3604932 5.1536916e-06 0)
    max(outlet) of p = 0

Time = 2.15

Courant Number mean: 0.5024973 max: 0.68024464
DILUPBiCG:  Solving for Ux, Initial residual = 0.003017805, Final residual = 8.8510271e-09, No Iterations 3
DILUPBiCG:  Solving for Uy, Initial residual = 0.0033316202, Final residual = 7.3506288e-09, No Iterations 3
GAMG:  Solving for p, Initial residual = 0.00013372206, Final residual = 3.825266e-07, No Iterations 3
GAMG:  Solving for p, Initial residual = 3.8426804e-07, Final residual = 3.8426804e-07, No Iterations 0
time step continuity errors : sum local = 2.0536186e-09, global = 1.9163316e-10, cumulative = -3.4018838e-08
ExecutionTime = 0.46 s  ClockTime = 1 s

fieldMinMax minmaxdomain write:
    min(U) = (0.91890913 0.035821685 0) in cell 0 at location (0.05 -0.45 0.05)
    max(U) = (0.91890913 0.035821685 0) in cell 0 at location (0.05 -0.45 0.05)
    min(p) = 0 in cell 99 at location (10 -0.45 0.05)
    max(p) = 1.7574889 in cell 0 at location (0.05 -0.45 0.05)

surfaceFieldValue inMassFlow write:
    sum(inlet) of phi = -0.1

surfaceFieldValue outMassFlow write:
    sum(outlet) of phi = 0.1

surfaceFieldValue inPre write:
    weightedAverage(inlet) of phi = -0.01
    weightedAverage(inlet) of U = (1 0 0)
    weightedAverage(inlet) of p = 1.6169357

surfaceFieldValue outMax write:
    max(outlet) of U = (1.3642929 5.1097938e-06 0)
    max(outlet) of p = 0

Time = 2.2

Courant Number mean: 0.50251377 max: 0.68214455
DILUPBiCG:  Solving for Ux, Initial residual = 0.0028752949, Final residual = 7.9745563e-09, No Iterations 3
DILUPBiCG:  Solving for Uy, Initial residual = 0.0031801889, Final residual = 7.044609e-09, No Iterations 3
GAMG:  Solving for p, Initial residual = 0.00012706311, Final residual = 3.5323052e-07, No Iterations 3
GAMG:  Solving for p, Initial residual = 3.5475827e-07, Final residual = 3.5475827e-07, No Iterations 0
time step continuity errors : sum local = 1.8878912e-09, global = 1.6618533e-10, cumulative = -3.3852652e-08
ExecutionTime = 0.46 s  ClockTime = 1 s

fieldMinMax minmaxdomain write:
    min(U) = (0.91890888 0.035821638 0) in cell 0 at location (0.05 -0.45 0.05)
    max(U) = (0.91890888 0.035821638 0) in cell 0 at location (0.05 -0.45 0.05)
    min(p) = 0 in cell 99 at location (10 -0.45 0.05)
    max(p) = 1.7528916 in cell 0 at location (0.05 -0.45 0.05)

surfaceFieldValue inMassFlow write:
    sum(inlet) of phi = -0.1

surfaceFieldValue outMassFlow write:
    sum(outlet) of phi = 0.1

surfaceFieldValue inPre write:
    weightedAverage(inlet) of phi = -0.01
    weightedAverage(inlet) of U = (1 0 0)
    weightedAverage(inlet) of p = 1.6123495

surfaceFieldValue outMax write:
    max(outlet) of U = (1.3679682 5.0290206e-06 0)
    max(outlet) of p = 0

Time = 2.25

Courant Number mean: 0.50252959 max: 0.68398229
DILUPBiCG:  Solving for Ux, Initial residual = 0.0027402856, Final residual = 7.2521378e-09, No Iterations 3
DILUPBiCG:  Solving for Uy, Initial residual = 0.0030370659, Final residual = 6.7463193e-09, No Iterations 3
GAMG:  Solving for p, Initial residual = 0.00012028839, Final residual = 3.2535043e-07, No Iterations 3
GAMG:  Solving for p, Initial residual = 3.2668778e-07, Final residual = 3.2668778e-07, No Iterations 0
time step continuity errors : sum local = 1.7315198e-09, global = 1.6312714e-10, cumulative = -3.3689525e-08
ExecutionTime = 0.46 s  ClockTime = 1 s

fieldMinMax minmaxdomain write:
    min(U) = (0.91890867 0.035821624 0) in cell 0 at location (0.05 -0.45 0.05)
    max(U) = (0.91890867 0.035821624 0) in cell 0 at location (0.05 -0.45 0.05)
    min(p) = 0 in cell 99 at location (10 -0.45 0.05)
    max(p) = 1.7485713 in cell 0 at location (0.05 -0.45 0.05)

surfaceFieldValue inMassFlow write:
    sum(inlet) of phi = -0.1

surfaceFieldValue outMassFlow write:
    sum(outlet) of phi = 0.1

surfaceFieldValue inPre write:
    weightedAverage(inlet) of phi = -0.01
    weightedAverage(inlet) of U = (1 0 0)
    weightedAverage(inlet) of p = 1.6080397

surfaceFieldValue outMax write:
    max(outlet) of U = (1.3715228 4.9216423e-06 0)
    max(outlet) of p = 0

Time = 2.3

Courant Number mean: 0.5025448 max: 0.68575966
DILUPBiCG:  Solving for Ux, Initial residual = 0.0026122818, Final residual = 6.7032354e-09, No Iterations 3
DILUPBiCG:  Solving for Uy, Initial residual = 0.0029018008, Final residual = 6.4694415e-09, No Iterations 3
GAMG:  Solving for p, Initial residual = 0.00011457178, Final residual = 3.0069486e-07, No Iterations 3
GAMG:  Solving for p, Initial residual = 3.018701e-07, Final residual = 3.018701e-07, No Iterations 0
time step continuity errors : sum local = 1.5938623e-09, global = 1.5863941e-10, cumulative = -3.3530886e-08
ExecutionTime = 0.46 s  ClockTime = 1 s

fieldMinMax minmaxdomain write:
    min(U) = (0.91890853 0.035821634 0) in cell 0 at location (0.05 -0.45 0.05)
    max(U) = (0.91890853 0.035821634 0) in cell 0 at location (0.05 -0.45 0.05)
    min(p) = 0 in cell 99 at location (10 -0.45 0.05)
    max(p) = 1.7445089 in cell 0 at location (0.05 -0.45 0.05)

surfaceFieldValue inMassFlow write:
    sum(inlet) of phi = -0.1

surfaceFieldValue outMassFlow write:
    sum(outlet) of phi = 0.1

surfaceFieldValue inPre write:
    weightedAverage(inlet) of phi = -0.01
    weightedAverage(inlet) of U = (1 0 0)
    weightedAverage(inlet) of p = 1.6039873

surfaceFieldValue outMax write:
    max(outlet) of U = (1.3749602 4.7959654e-06 0)
    max(outlet) of p = 0

Time = 2.35

Courant Number mean: 0.50255943 max: 0.68747841
DILUPBiCG:  Solving for Ux, Initial residual = 0.0024908602, Final residual = 6.236643e-09, No Iterations 3
DILUPBiCG:  Solving for Uy, Initial residual = 0.0027738864, Final residual = 6.1961498e-09, No Iterations 3
GAMG:  Solving for p, Initial residual = 0.00010865903, Final residual = 2.7960031e-07, No Iterations 3
GAMG:  Solving for p, Initial residual = 2.8063929e-07, Final residual = 2.8063929e-07, No Iterations 0
time step continuity errors : sum local = 1.4763791e-09, global = 1.5019384e-10, cumulative = -3.3380692e-08
ExecutionTime = 0.46 s  ClockTime = 1 s

fieldMinMax minmaxdomain write:
    min(U) = (0.91890843 0.035821659 0) in cell 0 at location (0.05 -0.45 0.05)
    max(U) = (0.91890843 0.035821659 0) in cell 0 at location (0.05 -0.45 0.05)
    min(p) = 0 in cell 99 at location (10 -0.45 0.05)
    max(p) = 1.7406864 in cell 0 at location (0.05 -0.45 0.05)

surfaceFieldValue inMassFlow write:
    sum(inlet) of phi = -0.1

surfaceFieldValue outMassFlow write:
    sum(outlet) of phi = 0.1

surfaceFieldValue inPre write:
    weightedAverage(inlet) of phi = -0.01
    weightedAverage(inlet) of U = (1 0 0)
    weightedAverage(inlet) of p = 1.6001743

surfaceFieldValue outMax write:
    max(outlet) of U = (1.3782837 4.6581867e-06 0)
    max(outlet) of p = 0

Time = 2.4

Courant Number mean: 0.50257349 max: 0.68914024
DILUPBiCG:  Solving for Ux, Initial residual = 0.0023756063, Final residual = 5.821624e-09, No Iterations 3
DILUPBiCG:  Solving for Uy, Initial residual = 0.0026528387, Final residual = 5.9413369e-09, No Iterations 3
GAMG:  Solving for p, Initial residual = 0.00010353361, Final residual = 2.5980322e-07, No Iterations 3
GAMG:  Solving for p, Initial residual = 2.607218e-07, Final residual = 2.607218e-07, No Iterations 0
time step continuity errors : sum local = 1.366854e-09, global = 1.4224518e-10, cumulative = -3.3238447e-08
ExecutionTime = 0.47 s  ClockTime = 1 s

fieldMinMax minmaxdomain write:
    min(U) = (0.91890837 0.035821693 0) in cell 0 at location (0.05 -0.45 0.05)
    max(U) = (0.91890837 0.035821693 0) in cell 0 at location (0.05 -0.45 0.05)
    min(p) = 0 in cell 99 at location (10 -0.45 0.05)
    max(p) = 1.7370876 in cell 0 at location (0.05 -0.45 0.05)

surfaceFieldValue inMassFlow write:
    sum(inlet) of phi = -0.1

surfaceFieldValue outMassFlow write:
    sum(outlet) of phi = 0.1

surfaceFieldValue inPre write:
    weightedAverage(inlet) of phi = -0.01
    weightedAverage(inlet) of U = (1 0 0)
    weightedAverage(inlet) of p = 1.5965844

surfaceFieldValue outMax write:
    max(outlet) of U = (1.3814967 4.5128938e-06 0)
    max(outlet) of p = 0

Time = 2.45

Courant Number mean: 0.50258701 max: 0.69074685
DILUPBiCG:  Solving for Ux, Initial residual = 0.0022661595, Final residual = 5.4482904e-09, No Iterations 3
DILUPBiCG:  Solving for Uy, Initial residual = 0.0025381414, Final residual = 5.6967826e-09, No Iterations 3
GAMG:  Solving for p, Initial residual = 9.8487133e-05, Final residual = 2.4247124e-07, No Iterations 3
GAMG:  Solving for p, Initial residual = 2.432872e-07, Final residual = 2.432872e-07, No Iterations 0
time step continuity errors : sum local = 1.271253e-09, global = 1.3458557e-10, cumulative = -3.3103861e-08
ExecutionTime = 0.47 s  ClockTime = 1 s

fieldMinMax minmaxdomain write:
    min(U) = (0.91890834 0.035821729 0) in cell 0 at location (0.05 -0.45 0.05)
    max(U) = (0.91890834 0.035821729 0) in cell 0 at location (0.05 -0.45 0.05)
    min(p) = 0 in cell 99 at location (10 -0.45 0.05)
    max(p) = 1.7336974 in cell 0 at location (0.05 -0.45 0.05)

surfaceFieldValue inMassFlow write:
    sum(inlet) of phi = -0.1

surfaceFieldValue outMassFlow write:
    sum(outlet) of phi = 0.1

surfaceFieldValue inPre write:
    weightedAverage(inlet) of phi = -0.01
    weightedAverage(inlet) of U = (1 0 0)
    weightedAverage(inlet) of p = 1.5932028

surfaceFieldValue outMax write:
    max(outlet) of U = (1.3846026 4.3634972e-06 0)
    max(outlet) of p = 0

Time = 2.5

Courant Number mean: 0.50260002 max: 0.69229986
DILUPBiCG:  Solving for Ux, Initial residual = 0.0021621389, Final residual = 5.1099061e-09, No Iterations 3
DILUPBiCG:  Solving for Uy, Initial residual = 0.0024293491, Final residual = 5.4602527e-09, No Iterations 3
GAMG:  Solving for p, Initial residual = 9.43051e-05, Final residual = 2.2532466e-07, No Iterations 3
GAMG:  Solving for p, Initial residual = 2.2604656e-07, Final residual = 2.2604656e-07, No Iterations 0
time step continuity errors : sum local = 1.1774629e-09, global = 1.2742633e-10, cumulative = -3.2976435e-08
ExecutionTime = 0.47 s  ClockTime = 1 s

fieldMinMax minmaxdomain write:
    min(U) = (0.91890832 0.035821766 0) in cell 0 at location (0.05 -0.45 0.05)
    max(U) = (0.91890832 0.035821766 0) in cell 0 at location (0.05 -0.45 0.05)
    min(p) = 0 in cell 99 at location (10 -0.45 0.05)
    max(p) = 1.7305021 in cell 0 at location (0.05 -0.45 0.05)

surfaceFieldValue inMassFlow write:
    sum(inlet) of phi = -0.1

surfaceFieldValue outMassFlow write:
    sum(outlet) of phi = 0.1

surfaceFieldValue inPre write:
    weightedAverage(inlet) of phi = -0.01
    weightedAverage(inlet) of U = (1 0 0)
    weightedAverage(inlet) of p = 1.5900155

surfaceFieldValue outMax write:
    max(outlet) of U = (1.3876046 4.2124986e-06 0)
    max(outlet) of p = 0

Time = 2.55

Courant Number mean: 0.50261254 max: 0.6938009
DILUPBiCG:  Solving for Ux, Initial residual = 0.0020632278, Final residual = 4.8011996e-09, No Iterations 3
DILUPBiCG:  Solving for Uy, Initial residual = 0.0023260564, Final residual = 5.238429e-09, No Iterations 3
GAMG:  Solving for p, Initial residual = 9.0124907e-05, Final residual = 2.1057598e-07, No Iterations 3
GAMG:  Solving for p, Initial residual = 2.1121847e-07, Final residual = 2.1121847e-07, No Iterations 0
time step continuity errors : sum local = 1.0969399e-09, global = 1.2074261e-10, cumulative = -3.2855692e-08
ExecutionTime = 0.47 s  ClockTime = 1 s

fieldMinMax minmaxdomain write:
    min(U) = (0.91890832 0.035821799 0) in cell 0 at location (0.05 -0.45 0.05)
    max(U) = (0.91890832 0.035821799 0) in cell 0 at location (0.05 -0.45 0.05)
    min(p) = 0 in cell 99 at location (10 -0.45 0.05)
    max(p) = 1.727489 in cell 0 at location (0.05 -0.45 0.05)

surfaceFieldValue inMassFlow write:
    sum(inlet) of phi = -0.1

surfaceFieldValue outMassFlow write:
    sum(outlet) of phi = 0.1

surfaceFieldValue inPre write:
    weightedAverage(inlet) of phi = -0.01
    weightedAverage(inlet) of U = (1 0 0)
    weightedAverage(inlet) of p = 1.5870101

surfaceFieldValue outMax write:
    max(outlet) of U = (1.3905057 4.0616889e-06 0)
    max(outlet) of p = 0

Time = 2.6

Courant Number mean: 0.50262458 max: 0.69525153
DILUPBiCG:  Solving for Ux, Initial residual = 0.0019691364, Final residual = 4.5180872e-09, No Iterations 3
DILUPBiCG:  Solving for Uy, Initial residual = 0.0022279281, Final residual = 5.024259e-09, No Iterations 3
GAMG:  Solving for p, Initial residual = 8.6330898e-05, Final residual = 1.9623484e-07, No Iterations 3
GAMG:  Solving for p, Initial residual = 1.9680517e-07, Final residual = 1.9680517e-07, No Iterations 0
time step continuity errors : sum local = 1.0191795e-09, global = 1.1567053e-10, cumulative = -3.2740022e-08
ExecutionTime = 0.49 s  ClockTime = 1 s

fieldMinMax minmaxdomain write:
    min(U) = (0.91890833 0.035821828 0) in cell 0 at location (0.05 -0.45 0.05)
    max(U) = (0.91890833 0.035821828 0) in cell 0 at location (0.05 -0.45 0.05)
    min(p) = 0 in cell 99 at location (10 -0.45 0.05)
    max(p) = 1.7246463 in cell 0 at location (0.05 -0.45 0.05)

surfaceFieldValue inMassFlow write:
    sum(inlet) of phi = -0.1

surfaceFieldValue outMassFlow write:
    sum(outlet) of phi = 0.1

surfaceFieldValue inPre write:
    weightedAverage(inlet) of phi = -0.01
    weightedAverage(inlet) of U = (1 0 0)
    weightedAverage(inlet) of p = 1.5841747

surfaceFieldValue outMax write:
    max(outlet) of U = (1.3933091 3.9123906e-06 0)
    max(outlet) of p = 0

Time = 2.65

Courant Number mean: 0.50263616 max: 0.69665328
DILUPBiCG:  Solving for Ux, Initial residual = 0.0018795958, Final residual = 4.2573238e-09, No Iterations 3
DILUPBiCG:  Solving for Uy, Initial residual = 0.0021346324, Final residual = 4.8209235e-09, No Iterations 3
GAMG:  Solving for p, Initial residual = 8.2507506e-05, Final residual = 1.8315863e-07, No Iterations 3
GAMG:  Solving for p, Initial residual = 1.836658e-07, Final residual = 1.836658e-07, No Iterations 0
time step continuity errors : sum local = 9.485586e-10, global = 1.0862126e-10, cumulative = -3.26314e-08
ExecutionTime = 0.49 s  ClockTime = 1 s

fieldMinMax minmaxdomain write:
    min(U) = (0.91890834 0.035821852 0) in cell 0 at location (0.05 -0.45 0.05)
    max(U) = (0.91890834 0.035821852 0) in cell 0 at location (0.05 -0.45 0.05)
    min(p) = 0 in cell 99 at location (10 -0.45 0.05)
    max(p) = 1.7219634 in cell 0 at location (0.05 -0.45 0.05)

surfaceFieldValue inMassFlow write:
    sum(inlet) of phi = -0.1

surfaceFieldValue outMassFlow write:
    sum(outlet) of phi = 0.1

surfaceFieldValue inPre write:
    weightedAverage(inlet) of phi = -0.01
    weightedAverage(inlet) of U = (1 0 0)
    weightedAverage(inlet) of p = 1.5814987

surfaceFieldValue outMax write:
    max(outlet) of U = (1.3960177 3.7655901e-06 0)
    max(outlet) of p = 0

Time = 2.7

Courant Number mean: 0.50264731 max: 0.69800766
DILUPBiCG:  Solving for Ux, Initial residual = 0.0017943553, Final residual = 4.0168618e-09, No Iterations 3
DILUPBiCG:  Solving for Uy, Initial residual = 0.0020458718, Final residual = 4.6295131e-09, No Iterations 3
GAMG:  Solving for p, Initial residual = 7.9043619e-05, Final residual = 1.7168798e-07, No Iterations 3
GAMG:  Solving for p, Initial residual = 1.7214103e-07, Final residual = 1.7214103e-07, No Iterations 0
time step continuity errors : sum local = 8.8674231e-10, global = 1.0337403e-10, cumulative = -3.2528026e-08
ExecutionTime = 0.49 s  ClockTime = 1 s

fieldMinMax minmaxdomain write:
    min(U) = (0.91890836 0.035821872 0) in cell 0 at location (0.05 -0.45 0.05)
    max(U) = (0.91890836 0.035821872 0) in cell 0 at location (0.05 -0.45 0.05)
    min(p) = 0 in cell 99 at location (10 -0.45 0.05)
    max(p) = 1.7194301 in cell 0 at location (0.05 -0.45 0.05)

surfaceFieldValue inMassFlow write:
    sum(inlet) of phi = -0.1

surfaceFieldValue outMassFlow write:
    sum(outlet) of phi = 0.1

surfaceFieldValue inPre write:
    weightedAverage(inlet) of phi = -0.01
    weightedAverage(inlet) of U = (1 0 0)
    weightedAverage(inlet) of p = 1.578972

surfaceFieldValue outMax write:
    max(outlet) of U = (1.3986345 3.6219717e-06 0)
    max(outlet) of p = 0

Time = 2.75

Courant Number mean: 0.50265804 max: 0.69931613
DILUPBiCG:  Solving for Ux, Initial residual = 0.0017131815, Final residual = 3.7939669e-09, No Iterations 3
DILUPBiCG:  Solving for Uy, Initial residual = 0.0019613587, Final residual = 4.4424512e-09, No Iterations 3
GAMG:  Solving for p, Initial residual = 7.5569453e-05, Final residual = 1.6114738e-07, No Iterations 3
GAMG:  Solving for p, Initial residual = 1.6155268e-07, Final residual = 1.6155268e-07, No Iterations 0
time step continuity errors : sum local = 8.3015088e-10, global = 9.791386e-11, cumulative = -3.2430112e-08
ExecutionTime = 0.49 s  ClockTime = 1 s

fieldMinMax minmaxdomain write:
    min(U) = (0.91890837 0.035821887 0) in cell 0 at location (0.05 -0.45 0.05)
    max(U) = (0.91890837 0.035821887 0) in cell 0 at location (0.05 -0.45 0.05)
    min(p) = 0 in cell 99 at location (10 -0.45 0.05)
    max(p) = 1.7170373 in cell 0 at location (0.05 -0.45 0.05)

surfaceFieldValue inMassFlow write:
    sum(inlet) of phi = -0.1

surfaceFieldValue outMassFlow write:
    sum(outlet) of phi = 0.1

surfaceFieldValue inPre write:
    weightedAverage(inlet) of phi = -0.01
    weightedAverage(inlet) of U = (1 0 0)
    weightedAverage(inlet) of p = 1.5765854

surfaceFieldValue outMax write:
    max(outlet) of U = (1.4011624 3.4820805e-06 0)
    max(outlet) of p = 0

Time = 2.8

Courant Number mean: 0.50266837 max: 0.70058012
DILUPBiCG:  Solving for Ux, Initial residual = 0.0016358565, Final residual = 3.586965e-09, No Iterations 3
DILUPBiCG:  Solving for Uy, Initial residual = 0.0018808449, Final residual = 4.2692329e-09, No Iterations 3
GAMG:  Solving for p, Initial residual = 7.2475816e-05, Final residual = 9.7960677e-07, No Iterations 2
GAMG:  Solving for p, Initial residual = 9.8194326e-07, Final residual = 9.8194326e-07, No Iterations 0
time step continuity errors : sum local = 5.0340154e-09, global = 2.6726148e-10, cumulative = -3.2162851e-08
ExecutionTime = 0.5 s  ClockTime = 1 s

fieldMinMax minmaxdomain write:
    min(U) = (0.91890837 0.035821902 0) in cell 0 at location (0.05 -0.45 0.05)
    max(U) = (0.91890837 0.035821902 0) in cell 0 at location (0.05 -0.45 0.05)
    min(p) = 0 in cell 99 at location (10 -0.45 0.05)
    max(p) = 1.7147887 in cell 0 at location (0.05 -0.45 0.05)

surfaceFieldValue inMassFlow write:
    sum(inlet) of phi = -0.1

surfaceFieldValue outMassFlow write:
    sum(outlet) of phi = 0.10000001

surfaceFieldValue inPre write:
    weightedAverage(inlet) of phi = -0.01
    weightedAverage(inlet) of U = (1 0 0)
    weightedAverage(inlet) of p = 1.5743424

surfaceFieldValue outMax write:
    max(outlet) of U = (1.4036042 3.3458852e-06 0)
    max(outlet) of p = 0

Time = 2.85

Courant Number mean: 0.50267834 max: 0.70180106
DILUPBiCG:  Solving for Ux, Initial residual = 0.0015621541, Final residual = 3.3937514e-09, No Iterations 3
DILUPBiCG:  Solving for Uy, Initial residual = 0.0018040174, Final residual = 4.1006554e-09, No Iterations 3
GAMG:  Solving for p, Initial residual = 6.9757956e-05, Final residual = 9.6187513e-07, No Iterations 2
GAMG:  Solving for p, Initial residual = 9.6408859e-07, Final residual = 9.6408859e-07, No Iterations 0
time step continuity errors : sum local = 4.9313521e-09, global = 2.421455e-10, cumulative = -3.1920705e-08
ExecutionTime = 0.5 s  ClockTime = 1 s

fieldMinMax minmaxdomain write:
    min(U) = (0.91890838 0.035821908 0) in cell 0 at location (0.05 -0.45 0.05)
    max(U) = (0.91890838 0.035821908 0) in cell 0 at location (0.05 -0.45 0.05)
    min(p) = 0 in cell 99 at location (10 -0.45 0.05)
    max(p) = 1.7126368 in cell 0 at location (0.05 -0.45 0.05)

surfaceFieldValue inMassFlow write:
    sum(inlet) of phi = -0.1

surfaceFieldValue outMassFlow write:
    sum(outlet) of phi = 0.1

surfaceFieldValue inPre write:
    weightedAverage(inlet) of phi = -0.01
    weightedAverage(inlet) of U = (1 0 0)
    weightedAverage(inlet) of p = 1.5721963

surfaceFieldValue outMax write:
    max(outlet) of U = (1.4059625 3.2153487e-06 0)
    max(outlet) of p = 0

Time = 2.9

Courant Number mean: 0.50268791 max: 0.70298026
DILUPBiCG:  Solving for Ux, Initial residual = 0.0014919533, Final residual = 3.2150244e-09, No Iterations 3
DILUPBiCG:  Solving for Uy, Initial residual = 0.0017308663, Final residual = 3.9400087e-09, No Iterations 3
GAMG:  Solving for p, Initial residual = 6.6860968e-05, Final residual = 8.9811192e-07, No Iterations 2
GAMG:  Solving for p, Initial residual = 9.000671e-07, Final residual = 9.000671e-07, No Iterations 0
time step continuity errors : sum local = 4.5940724e-09, global = 2.2526442e-10, cumulative = -3.1695441e-08
ExecutionTime = 0.5 s  ClockTime = 1 s

fieldMinMax minmaxdomain write:
    min(U) = (0.91890839 0.035821913 0) in cell 0 at location (0.05 -0.45 0.05)
    max(U) = (0.91890839 0.035821913 0) in cell 0 at location (0.05 -0.45 0.05)
    min(p) = 0 in cell 99 at location (10 -0.45 0.05)
    max(p) = 1.7106188 in cell 0 at location (0.05 -0.45 0.05)

surfaceFieldValue inMassFlow write:
    sum(inlet) of phi = -0.1

surfaceFieldValue outMassFlow write:
    sum(outlet) of phi = 0.1

surfaceFieldValue inPre write:
    weightedAverage(inlet) of phi = -0.01
    weightedAverage(inlet) of U = (1 0 0)
    weightedAverage(inlet) of p = 1.5701836

surfaceFieldValue outMax write:
    max(outlet) of U = (1.40824 3.0890055e-06 0)
    max(outlet) of p = 0

Time = 2.95

Courant Number mean: 0.50269712 max: 0.70411906
[...]
GAMG:  Solving for p, Initial residual = 5.7607208e-07, Final residual = 5.7607208e-07, No Iterations 0
GAMG:  Solving for p, Initial residual = 5.7607208e-07, Final residual = 5.7607208e-07, No Iterations 0
time step continuity errors : sum local = 2.8196756e-09, global = 2.3748959e-12, cumulative = -2.6305309e-08
ExecutionTime = 1.69 s  ClockTime = 2 s

fieldMinMax minmaxdomain write:
    min(U) = (0.91890839 0.035821913 0) in cell 0 at location (0.05 -0.45 0.05)
    max(U) = (0.91890839 0.035821913 0) in cell 0 at location (0.05 -0.45 0.05)
    min(p) = 0 in cell 99 at location (10 -0.45 0.05)
    max(p) = 1.6755989 in cell 0 at location (0.05 -0.45 0.05)

surfaceFieldValue inMassFlow write:
    sum(inlet) of phi = -0.1

surfaceFieldValue outMassFlow write:
    sum(outlet) of phi = 0.1

surfaceFieldValue inPre write:
    weightedAverage(inlet) of phi = -0.01
    weightedAverage(inlet) of U = (1 0 0)
    weightedAverage(inlet) of p = 1.5352584

surfaceFieldValue outMax write:
    max(outlet) of U = (1.4701557 4.2962712e-05 0)
    max(outlet) of p = 0

Time = 19.35

Courant Number mean: 0.50293959 max: 0.73507842
DILUPBiCG:  Solving for Ux, Initial residual = 9.8824248e-09, Final residual = 9.8824248e-09, No Iterations 0
DILUPBiCG:  Solving for Uy, Initial residual = 4.178936e-08, Final residual = 6.9518911e-10, No Iterations 1
GAMG:  Solving for p, Initial residual = 7.1275396e-07, Final residual = 7.1275396e-07, No Iterations 0
GAMG:  Solving for p, Initial residual = 7.1275396e-07, Final residual = 7.1275396e-07, No Iterations 0
time step continuity errors : sum local = 3.4886866e-09, global = -7.944717e-12, cumulative = -2.6313254e-08
ExecutionTime = 1.69 s  ClockTime = 2 s

fieldMinMax minmaxdomain write:
    min(U) = (0.91890839 0.035821913 0) in cell 0 at location (0.05 -0.45 0.05)
    max(U) = (0.91890839 0.035821913 0) in cell 0 at location (0.05 -0.45 0.05)
    min(p) = 0 in cell 99 at location (10 -0.45 0.05)
    max(p) = 1.6755989 in cell 0 at location (0.05 -0.45 0.05)

surfaceFieldValue inMassFlow write:
    sum(inlet) of phi = -0.1

surfaceFieldValue outMassFlow write:
    sum(outlet) of phi = 0.1

surfaceFieldValue inPre write:
    weightedAverage(inlet) of phi = -0.01
    weightedAverage(inlet) of U = (1 0 0)
    weightedAverage(inlet) of p = 1.5352584

surfaceFieldValue outMax write:
    max(outlet) of U = (1.4701556 4.2961969e-05 0)
    max(outlet) of p = 0

Time = 19.4

Courant Number mean: 0.50293959 max: 0.73507841
DILUPBiCG:  Solving for Ux, Initial residual = 1.305208e-08, Final residual = 5.5805675e-09, No Iterations 1
DILUPBiCG:  Solving for Uy, Initial residual = 3.5360996e-08, Final residual = 7.1708655e-10, No Iterations 1
GAMG:  Solving for p, Initial residual = 8.4018011e-07, Final residual = 8.4018011e-07, No Iterations 0
GAMG:  Solving for p, Initial residual = 8.4018011e-07, Final residual = 8.4018011e-07, No Iterations 0
time step continuity errors : sum local = 4.1123942e-09, global = -9.5604456e-12, cumulative = -2.6322815e-08
ExecutionTime = 1.69 s  ClockTime = 2 s

fieldMinMax minmaxdomain write:
    min(U) = (0.91890839 0.035821913 0) in cell 0 at location (0.05 -0.45 0.05)
    max(U) = (0.91890839 0.035821913 0) in cell 0 at location (0.05 -0.45 0.05)
    min(p) = 0 in cell 99 at location (10 -0.45 0.05)
    max(p) = 1.6755989 in cell 0 at location (0.05 -0.45 0.05)

surfaceFieldValue inMassFlow write:
    sum(inlet) of phi = -0.1

surfaceFieldValue outMassFlow write:
    sum(outlet) of phi = 0.1

surfaceFieldValue inPre write:
    weightedAverage(inlet) of phi = -0.01
    weightedAverage(inlet) of U = (1 0 0)
    weightedAverage(inlet) of p = 1.5352584

surfaceFieldValue outMax write:
    max(outlet) of U = (1.4701556 4.2961453e-05 0)
    max(outlet) of p = 0

Time = 19.45

Courant Number mean: 0.50293959 max: 0.73507842
DILUPBiCG:  Solving for Ux, Initial residual = 1.4364067e-08, Final residual = 4.1109148e-10, No Iterations 1
DILUPBiCG:  Solving for Uy, Initial residual = 2.9157692e-08, Final residual = 9.7865052e-10, No Iterations 1
GAMG:  Solving for p, Initial residual = 8.7557446e-07, Final residual = 8.7557446e-07, No Iterations 0
GAMG:  Solving for p, Initial residual = 8.7557446e-07, Final residual = 8.7557446e-07, No Iterations 0
time step continuity errors : sum local = 4.2856373e-09, global = 3.6589662e-11, cumulative = -2.6286225e-08
ExecutionTime = 1.69 s  ClockTime = 2 s

fieldMinMax minmaxdomain write:
    min(U) = (0.91890839 0.035821913 0) in cell 0 at location (0.05 -0.45 0.05)
    max(U) = (0.91890839 0.035821913 0) in cell 0 at location (0.05 -0.45 0.05)
    min(p) = 0 in cell 99 at location (10 -0.45 0.05)
    max(p) = 1.6755989 in cell 0 at location (0.05 -0.45 0.05)

surfaceFieldValue inMassFlow write:
    sum(inlet) of phi = -0.1

surfaceFieldValue outMassFlow write:
    sum(outlet) of phi = 0.1

surfaceFieldValue inPre write:
    weightedAverage(inlet) of phi = -0.01
    weightedAverage(inlet) of U = (1 0 0)
    weightedAverage(inlet) of p = 1.5352584

surfaceFieldValue outMax write:
    max(outlet) of U = (1.4701557 4.2961268e-05 0)
    max(outlet) of p = 0

Time = 19.5

Courant Number mean: 0.50293959 max: 0.73507844
DILUPBiCG:  Solving for Ux, Initial residual = 1.3194344e-08, Final residual = 1.9857908e-10, No Iterations 1
DILUPBiCG:  Solving for Uy, Initial residual = 2.5199566e-08, Final residual = 1.6082912e-09, No Iterations 1
GAMG:  Solving for p, Initial residual = 8.3895516e-07, Final residual = 8.3895516e-07, No Iterations 0
GAMG:  Solving for p, Initial residual = 8.3895516e-07, Final residual = 8.3895516e-07, No Iterations 0
time step continuity errors : sum local = 4.1063985e-09, global = 9.3962921e-11, cumulative = -2.6192262e-08
ExecutionTime = 1.69 s  ClockTime = 2 s

fieldMinMax minmaxdomain write:
    min(U) = (0.91890839 0.035821913 0) in cell 0 at location (0.05 -0.45 0.05)
    max(U) = (0.91890839 0.035821913 0) in cell 0 at location (0.05 -0.45 0.05)
    min(p) = 0 in cell 99 at location (10 -0.45 0.05)
    max(p) = 1.6755989 in cell 0 at location (0.05 -0.45 0.05)

surfaceFieldValue inMassFlow write:
    sum(inlet) of phi = -0.1

surfaceFieldValue outMassFlow write:
    sum(outlet) of phi = 0.1

surfaceFieldValue inPre write:
    weightedAverage(inlet) of phi = -0.01
    weightedAverage(inlet) of U = (1 0 0)
    weightedAverage(inlet) of p = 1.5352584

surfaceFieldValue outMax write:
    max(outlet) of U = (1.4701557 4.2961478e-05 0)
    max(outlet) of p = 0

Time = 19.55

Courant Number mean: 0.50293959 max: 0.73507845
DILUPBiCG:  Solving for Ux, Initial residual = 1.2100431e-08, Final residual = 1.6404402e-09, No Iterations 1
DILUPBiCG:  Solving for Uy, Initial residual = 2.0526587e-08, Final residual = 2.3131181e-10, No Iterations 1
GAMG:  Solving for p, Initial residual = 7.628972e-07, Final residual = 7.628972e-07, No Iterations 0
GAMG:  Solving for p, Initial residual = 7.628972e-07, Final residual = 7.628972e-07, No Iterations 0
time step continuity errors : sum local = 3.7341208e-09, global = 1.0115341e-10, cumulative = -2.6091109e-08
ExecutionTime = 1.7 s  ClockTime = 2 s

fieldMinMax minmaxdomain write:
    min(U) = (0.91890839 0.035821913 0) in cell 0 at location (0.05 -0.45 0.05)
    max(U) = (0.91890839 0.035821913 0) in cell 0 at location (0.05 -0.45 0.05)
    min(p) = 0 in cell 99 at location (10 -0.45 0.05)
    max(p) = 1.6755989 in cell 0 at location (0.05 -0.45 0.05)

surfaceFieldValue inMassFlow write:
    sum(inlet) of phi = -0.1

surfaceFieldValue outMassFlow write:
    sum(outlet) of phi = 0.1

surfaceFieldValue inPre write:
    weightedAverage(inlet) of phi = -0.01
    weightedAverage(inlet) of U = (1 0 0)
    weightedAverage(inlet) of p = 1.5352584

surfaceFieldValue outMax write:
    max(outlet) of U = (1.4701557 4.2961994e-05 0)
    max(outlet) of p = 0

Time = 19.6

Courant Number mean: 0.50293959 max: 0.73507846
DILUPBiCG:  Solving for Ux, Initial residual = 1.1766133e-08, Final residual = 2.9913651e-10, No Iterations 1
DILUPBiCG:  Solving for Uy, Initial residual = 1.7859768e-08, Final residual = 1.8049728e-10, No Iterations 1
GAMG:  Solving for p, Initial residual = 6.7972243e-07, Final residual = 6.7972243e-07, No Iterations 0
GAMG:  Solving for p, Initial residual = 6.7972243e-07, Final residual = 6.7972243e-07, No Iterations 0
time step continuity errors : sum local = 3.3270087e-09, global = 3.4637751e-11, cumulative = -2.6056471e-08
ExecutionTime = 1.7 s  ClockTime = 2 s

fieldMinMax minmaxdomain write:
    min(U) = (0.91890839 0.035821913 0) in cell 0 at location (0.05 -0.45 0.05)
    max(U) = (0.91890839 0.035821913 0) in cell 0 at location (0.05 -0.45 0.05)
    min(p) = 0 in cell 99 at location (10 -0.45 0.05)
    max(p) = 1.6755989 in cell 0 at location (0.05 -0.45 0.05)

surfaceFieldValue inMassFlow write:
    sum(inlet) of phi = -0.1

surfaceFieldValue outMassFlow write:
    sum(outlet) of phi = 0.1

surfaceFieldValue inPre write:
    weightedAverage(inlet) of phi = -0.01
    weightedAverage(inlet) of U = (1 0 0)
    weightedAverage(inlet) of p = 1.5352584

surfaceFieldValue outMax write:
    max(outlet) of U = (1.4701557 4.2962705e-05 0)
    max(outlet) of p = 0

Time = 19.65

Courant Number mean: 0.50293959 max: 0.73507843
DILUPBiCG:  Solving for Ux, Initial residual = 1.0732089e-08, Final residual = 1.7207941e-10, No Iterations 1
DILUPBiCG:  Solving for Uy, Initial residual = 1.4936849e-08, Final residual = 1.6696939e-10, No Iterations 1
GAMG:  Solving for p, Initial residual = 6.6568757e-07, Final residual = 6.6568757e-07, No Iterations 0
GAMG:  Solving for p, Initial residual = 6.6568757e-07, Final residual = 6.6568757e-07, No Iterations 0
time step continuity errors : sum local = 3.2583127e-09, global = -4.1064992e-11, cumulative = -2.6097536e-08
ExecutionTime = 1.7 s  ClockTime = 2 s

fieldMinMax minmaxdomain write:
    min(U) = (0.91890839 0.035821913 0) in cell 0 at location (0.05 -0.45 0.05)
    max(U) = (0.91890839 0.035821913 0) in cell 0 at location (0.05 -0.45 0.05)
    min(p) = 0 in cell 99 at location (10 -0.45 0.05)
    max(p) = 1.6755989 in cell 0 at location (0.05 -0.45 0.05)

surfaceFieldValue inMassFlow write:
    sum(inlet) of phi = -0.1

surfaceFieldValue outMassFlow write:
    sum(outlet) of phi = 0.099999999

surfaceFieldValue inPre write:
    weightedAverage(inlet) of phi = -0.01
    weightedAverage(inlet) of U = (1 0 0)
    weightedAverage(inlet) of p = 1.5352584

surfaceFieldValue outMax write:
    max(outlet) of U = (1.4701556 4.2963463e-05 0)
    max(outlet) of p = 0

Time = 19.7

Courant Number mean: 0.50293959 max: 0.7350784
DILUPBiCG:  Solving for Ux, Initial residual = 9.9267426e-09, Final residual = 9.9267426e-09, No Iterations 0
DILUPBiCG:  Solving for Uy, Initial residual = 1.2672742e-08, Final residual = 1.4993274e-10, No Iterations 1
GAMG:  Solving for p, Initial residual = 8.7792549e-07, Final residual = 8.7792549e-07, No Iterations 0
GAMG:  Solving for p, Initial residual = 8.7792549e-07, Final residual = 8.7792549e-07, No Iterations 0
time step continuity errors : sum local = 4.297145e-09, global = -7.9112933e-11, cumulative = -2.6176649e-08
ExecutionTime = 1.7 s  ClockTime = 2 s

fieldMinMax minmaxdomain write:
    min(U) = (0.91890839 0.035821913 0) in cell 0 at location (0.05 -0.45 0.05)
    max(U) = (0.91890839 0.035821913 0) in cell 0 at location (0.05 -0.45 0.05)
    min(p) = 0 in cell 99 at location (10 -0.45 0.05)
    max(p) = 1.6755989 in cell 0 at location (0.05 -0.45 0.05)

surfaceFieldValue inMassFlow write:
    sum(inlet) of phi = -0.1

surfaceFieldValue outMassFlow write:
    sum(outlet) of phi = 0.099999998

surfaceFieldValue inPre write:
    weightedAverage(inlet) of phi = -0.01
    weightedAverage(inlet) of U = (1 0 0)
    weightedAverage(inlet) of p = 1.5352584

surfaceFieldValue outMax write:
    max(outlet) of U = (1.4701556 4.2964123e-05 0)
    max(outlet) of p = 0

Time = 19.75

Courant Number mean: 0.50293959 max: 0.7350784
DILUPBiCG:  Solving for Ux, Initial residual = 1.3631262e-08, Final residual = 4.4625598e-10, No Iterations 1
DILUPBiCG:  Solving for Uy, Initial residual = 1.0881412e-08, Final residual = 1.3390816e-10, No Iterations 1
GAMG:  Solving for p, Initial residual = 8.6007859e-07, Final residual = 8.6007859e-07, No Iterations 0
GAMG:  Solving for p, Initial residual = 8.6007859e-07, Final residual = 8.6007859e-07, No Iterations 0
time step continuity errors : sum local = 4.2097902e-09, global = 1.3573663e-11, cumulative = -2.6163075e-08
ExecutionTime = 1.7 s  ClockTime = 2 s

fieldMinMax minmaxdomain write:
    min(U) = (0.91890839 0.035821913 0) in cell 0 at location (0.05 -0.45 0.05)
    max(U) = (0.91890839 0.035821913 0) in cell 0 at location (0.05 -0.45 0.05)
    min(p) = 0 in cell 99 at location (10 -0.45 0.05)
    max(p) = 1.6755989 in cell 0 at location (0.05 -0.45 0.05)

surfaceFieldValue inMassFlow write:
    sum(inlet) of phi = -0.1

surfaceFieldValue outMassFlow write:
    sum(outlet) of phi = 0.1

surfaceFieldValue inPre write:
    weightedAverage(inlet) of phi = -0.01
    weightedAverage(inlet) of U = (1 0 0)
    weightedAverage(inlet) of p = 1.5352584

surfaceFieldValue outMax write:
    max(outlet) of U = (1.4701557 4.296458e-05 0)
    max(outlet) of p = 0

Time = 19.8

Courant Number mean: 0.50293959 max: 0.73507845
DILUPBiCG:  Solving for Ux, Initial residual = 1.2495035e-08, Final residual = 2.1090282e-10, No Iterations 1
DILUPBiCG:  Solving for Uy, Initial residual = 9.2680557e-09, Final residual = 9.2680557e-09, No Iterations 0
GAMG:  Solving for p, Initial residual = 8.026577e-07, Final residual = 8.026577e-07, No Iterations 0
GAMG:  Solving for p, Initial residual = 8.026577e-07, Final residual = 8.026577e-07, No Iterations 0
time step continuity errors : sum local = 3.9287348e-09, global = 1.5711944e-10, cumulative = -2.6005956e-08
ExecutionTime = 1.7 s  ClockTime = 2 s

fieldMinMax minmaxdomain write:
    min(U) = (0.91890839 0.035821913 0) in cell 0 at location (0.05 -0.45 0.05)
    max(U) = (0.91890839 0.035821913 0) in cell 0 at location (0.05 -0.45 0.05)
    min(p) = 0 in cell 99 at location (10 -0.45 0.05)
    max(p) = 1.6755989 in cell 0 at location (0.05 -0.45 0.05)

surfaceFieldValue inMassFlow write:
    sum(inlet) of phi = -0.1

surfaceFieldValue outMassFlow write:
    sum(outlet) of phi = 0.1

surfaceFieldValue inPre write:
    weightedAverage(inlet) of phi = -0.01
    weightedAverage(inlet) of U = (1 0 0)
    weightedAverage(inlet) of p = 1.5352584

surfaceFieldValue outMax write:
    max(outlet) of U = (1.4701557 4.2964885e-05 0)
    max(outlet) of p = 0

Time = 19.85

Courant Number mean: 0.50293959 max: 0.73507848
DILUPBiCG:  Solving for Ux, Initial residual = 1.1389978e-08, Final residual = 5.1076296e-10, No Iterations 1
DILUPBiCG:  Solving for Uy, Initial residual = 9.1486282e-09, Final residual = 9.1486282e-09, No Iterations 0
GAMG:  Solving for p, Initial residual = 7.4490904e-07, Final residual = 7.4490904e-07, No Iterations 0
GAMG:  Solving for p, Initial residual = 7.4490904e-07, Final residual = 7.4490904e-07, No Iterations 0
time step continuity errors : sum local = 3.6460748e-09, global = 2.0684249e-10, cumulative = -2.5799113e-08
ExecutionTime = 1.72 s  ClockTime = 2 s

fieldMinMax minmaxdomain write:
    min(U) = (0.91890839 0.035821913 0) in cell 0 at location (0.05 -0.45 0.05)
    max(U) = (0.91890839 0.035821913 0) in cell 0 at location (0.05 -0.45 0.05)
    min(p) = 0 in cell 99 at location (10 -0.45 0.05)
    max(p) = 1.6755989 in cell 0 at location (0.05 -0.45 0.05)

surfaceFieldValue inMassFlow write:
    sum(inlet) of phi = -0.1

surfaceFieldValue outMassFlow write:
    sum(outlet) of phi = 0.1

surfaceFieldValue inPre write:
    weightedAverage(inlet) of phi = -0.01
    weightedAverage(inlet) of U = (1 0 0)
    weightedAverage(inlet) of p = 1.5352584

surfaceFieldValue outMax write:
    max(outlet) of U = (1.4701558 4.2965091e-05 0)
    max(outlet) of p = 0

Time = 19.9

Courant Number mean: 0.50293959 max: 0.73507848
DILUPBiCG:  Solving for Ux, Initial residual = 1.081665e-08, Final residual = 3.4412077e-10, No Iterations 1
DILUPBiCG:  Solving for Uy, Initial residual = 8.986388e-09, Final residual = 8.986388e-09, No Iterations 0
GAMG:  Solving for p, Initial residual = 6.8899481e-07, Final residual = 6.8899481e-07, No Iterations 0
GAMG:  Solving for p, Initial residual = 6.8899481e-07, Final residual = 6.8899481e-07, No Iterations 0
time step continuity errors : sum local = 3.3723938e-09, global = 1.0818249e-10, cumulative = -2.5690931e-08
ExecutionTime = 1.72 s  ClockTime = 2 s

fieldMinMax minmaxdomain write:
    min(U) = (0.91890839 0.035821913 0) in cell 0 at location (0.05 -0.45 0.05)
    max(U) = (0.91890839 0.035821913 0) in cell 0 at location (0.05 -0.45 0.05)
    min(p) = 0 in cell 99 at location (10 -0.45 0.05)
    max(p) = 1.6755989 in cell 0 at location (0.05 -0.45 0.05)

surfaceFieldValue inMassFlow write:
    sum(inlet) of phi = -0.1

surfaceFieldValue outMassFlow write:
    sum(outlet) of phi = 0.1

surfaceFieldValue inPre write:
    weightedAverage(inlet) of phi = -0.01
    weightedAverage(inlet) of U = (1 0 0)
    weightedAverage(inlet) of p = 1.5352584

surfaceFieldValue outMax write:
    max(outlet) of U = (1.4701557 4.2965141e-05 0)
    max(outlet) of p = 0

Time = 19.95

Courant Number mean: 0.50293959 max: 0.73507843
DILUPBiCG:  Solving for Ux, Initial residual = 9.9246279e-09, Final residual = 9.9246279e-09, No Iterations 0
DILUPBiCG:  Solving for Uy, Initial residual = 8.9777854e-09, Final residual = 8.9777854e-09, No Iterations 0
GAMG:  Solving for p, Initial residual = 8.7135087e-07, Final residual = 8.7135087e-07, No Iterations 0
GAMG:  Solving for p, Initial residual = 8.7135087e-07, Final residual = 8.7135087e-07, No Iterations 0
time step continuity errors : sum local = 4.2649645e-09, global = 2.727486e-12, cumulative = -2.5688203e-08
ExecutionTime = 1.72 s  ClockTime = 2 s

fieldMinMax minmaxdomain write:
    min(U) = (0.91890839 0.035821913 0) in cell 0 at location (0.05 -0.45 0.05)
    max(U) = (0.91890839 0.035821913 0) in cell 0 at location (0.05 -0.45 0.05)
    min(p) = 0 in cell 99 at location (10 -0.45 0.05)
    max(p) = 1.6755989 in cell 0 at location (0.05 -0.45 0.05)

surfaceFieldValue inMassFlow write:
    sum(inlet) of phi = -0.1

surfaceFieldValue outMassFlow write:
    sum(outlet) of phi = 0.1

surfaceFieldValue inPre write:
    weightedAverage(inlet) of phi = -0.01
    weightedAverage(inlet) of U = (1 0 0)
    weightedAverage(inlet) of p = 1.5352584

surfaceFieldValue outMax write:
    max(outlet) of U = (1.4701556 4.296499e-05 0)
    max(outlet) of p = 0

Time = 20

Courant Number mean: 0.50293959 max: 0.73507838
DILUPBiCG:  Solving for Ux, Initial residual = 1.357864e-08, Final residual = 3.020536e-10, No Iterations 1
DILUPBiCG:  Solving for Uy, Initial residual = 8.8363079e-09, Final residual = 8.8363079e-09, No Iterations 0
GAMG:  Solving for p, Initial residual = 8.399934e-07, Final residual = 8.399934e-07, No Iterations 0
GAMG:  Solving for p, Initial residual = 8.399934e-07, Final residual = 8.399934e-07, No Iterations 0
time step continuity errors : sum local = 4.1114803e-09, global = -1.2486288e-10, cumulative = -2.5813066e-08
ExecutionTime = 1.72 s  ClockTime = 2 s

fieldMinMax minmaxdomain write:
    min(U) = (0.91890839 0.035821913 0) in cell 0 at location (0.05 -0.45 0.05)
    max(U) = (0.91890839 0.035821913 0) in cell 0 at location (0.05 -0.45 0.05)
    min(p) = 0 in cell 99 at location (10 -0.45 0.05)
    max(p) = 1.6755989 in cell 0 at location (0.05 -0.45 0.05)

surfaceFieldValue inMassFlow write:
    sum(inlet) of phi = -0.1

surfaceFieldValue outMassFlow write:
    sum(outlet) of phi = 0.099999998

surfaceFieldValue inPre write:
    weightedAverage(inlet) of phi = -0.01
    weightedAverage(inlet) of U = (1 0 0)
    weightedAverage(inlet) of p = 1.5352584

surfaceFieldValue outMax write:
    max(outlet) of U = (1.4701555 4.2964614e-05 0)
    max(outlet) of p = 0

End

