/*---------------------------------------------------------------------------*\
| =========                 |                                                 |
| \\      /  F ield         | OpenFOAM: The Open Source CFD Toolbox           |
|  \\    /   O peration     | Version:  2112                                  |
|   \\  /    A nd           | Website:  www.openfoam.com                      |
|    \\/     M anipulation  |                                                 |
\*---------------------------------------------------------------------------*/
Build  : _d44c8318-20220111 OPENFOAM=2112 version=2112
Arch   : "LSB;label=32;scalar=64"
Exec   : icoFoam
Date   : Jul 22 2022
Time   : 16:09:00
Host   : LAPTOP-L9TFGUDT
PID    : 1279
I/O    : uncollated
Case   : /home/beder/tutorials/Day5/HagenPoiseuille/laminar_pipe/case0/system
nProcs : 1
trapFpe: Floating point exception trapping enabled (FOAM_SIGFPE).
fileModificationChecking : Monitoring run-time modified files using timeStampMaster (fileModificationSkew 5, maxFileModificationPolls 20)
allowSystemOperations : Allowing user-supplied system call operations

// * * * * * * * * * * * * * * * * * * * * * * * * * * * * * * * * * * * * * //
Create time

